examples/test_perturbation_outputs/pert_min_loss/pglib_opf_case2000_tamu.m
%% MATPOWER Case Format : Version 2
function mpc = pglib_opf_case2000_tamu
mpc.version = '2';

%%-----  Power Flow Data  -----%%
%% system MVA base
mpc.baseMVA = 100.0;
%% bus data
%    bus_i    type    Pd    Qd    Gs    Bs    area    Vm    Va    baseKV    zone    Vmax    Vmin
mpc.bus = [
	1001	1	20.78	5.89	0.0	0.0	1	1.0	0.0	115.0	9	1.1	0.9				
	1002	1	15.410000000000002	4.37	0.0	0.0	1	1.0	0.0	115.0	9	1.1	0.9				
	1003	1	0.0	0.0	0.0	0.0	1	1.0	0.0	115.0	9	1.1	0.9				
	1004	2	0.0	0.0	0.0	0.0	1	1.0	0.0	230.0	9	1.1	0.9				
	1005	1	0.0	0.0	0.0	0.0	1	1.0	0.0	115.0	9	1.1	0.9				
	1006	2	0.0	0.0	0.0	0.0	1	1.0	0.0	13.8	9	1.1	0.9				
	1007	1	7.01	1.9900000000000002	0.0	-0.8199999999999998	1	1.0	0.0	115.0	9	1.1	0.9				
	1008	1	0.0	0.0	0.0	0.0	1	1.0	0.0	115.0	9	1.1	0.9				
	1009	2	0.0	0.0	0.0	0.0	1	1.0	0.0	13.8	9	1.1	0.9				
	1010	1	0.0	0.0	0.0	-3.07	1	1.0	0.0	115.0	9	1.1	0.9				
	1011	2	0.0	0.0	0.0	0.0	1	1.0	0.0	22.0	9	1.1	0.9				
	1012	1	2.99	0.8500000000000001	0.0	9.5	1	1.0	0.0	115.0	9	1.1	0.9				
	1013	1	29.23	8.28	0.0	0.0	1	1.0	0.0	115.0	9	1.1	0.9				
	1014	1	2.22	0.63	0.0	0.0	1	1.0	0.0	115.0	9	1.1	0.9				
	1015	1	7.51	2.13	0.0	0.0	1	1.0	0.0	115.0	9	1.1	0.9				
	1016	1	2.89	0.8199999999999998	0.0	30.0	1	1.0	0.0	115.0	9	1.1	0.9				
	1017	1	18.34	5.2	0.0	0.0	1	1.0	0.0	115.0	9	1.1	0.9				
	1018	1	0.07	0.02	0.0	0.0	1	1.0	0.0	115.0	9	1.1	0.9				
	1019	1	61.78	17.5	0.0	142.98	1	1.0	0.0	115.0	9	1.1	0.9				
	1020	1	0.0	0.0	0.0	67.23	1	1.0	0.0	115.0	9	1.1	0.9				
	1021	2	0.0	0.0	0.0	0.0	1	1.0	0.0	13.8	9	1.1	0.9				
	1022	1	0.0	0.0	0.0	0.0	1	1.0	0.0	115.0	9	1.1	0.9				
	1023	2	0.0	0.0	0.0	0.0	1	1.0	0.0	13.8	9	1.1	0.9				
	1024	1	63.04	17.86	0.0	0.0	1	1.0	0.0	115.0	9	1.1	0.9				
	1025	1	0.0	0.0	0.0	0.0	1	1.0	0.0	115.0	9	1.1	0.9				
	1026	2	0.0	0.0	0.0	0.0	1	1.0	0.0	13.8	9	1.1	0.9				
	1027	1	101.21	28.68	0.0	75.0	1	1.0	0.0	115.0	9	1.1	0.9				
	1028	1	10.01	2.84	0.0	0.0	1	1.0	0.0	115.0	9	1.1	0.9				
	1029	1	83.18	23.57	0.0	40.0	1	1.0	0.0	115.0	9	1.1	0.9				
	1030	1	24.63	6.98	0.0	0.0	1	1.0	0.0	115.0	9	1.1	0.9				
	1031	1	9.25	2.62	0.0	0.0	1	1.0	0.0	115.0	9	1.1	0.9				
	1032	1	0.0	0.0	0.0	0.0	1	1.0	0.0	115.0	9	1.1	0.9				
	1033	2	0.0	0.0	0.0	50.0	1	1.0	0.0	230.0	9	1.1	0.9				
	1034	1	0.0	0.0	0.0	0.0	1	1.0	0.0	115.0	9	1.1	0.9				
	1035	2	0.0	0.0	0.0	0.0	1	1.0	0.0	13.8	9	1.1	0.9				
	1036	1	13.600000000000001	3.85	0.0	0.0	1	1.0	0.0	115.0	9	1.1	0.9				
	1037	1	102.24	28.970000000000002	0.0	0.0	1	1.0	0.0	115.0	9	1.1	0.9				
	1038	1	0.0	0.0	0.0	0.0	1	1.0	0.0	115.0	9	1.1	0.9				
	1039	2	0.0	0.0	0.0	0.0	1	1.0	0.0	22.0	9	1.1	0.9				
	1040	1	44.36	12.57	0.0	0.0	1	1.0	0.0	115.0	9	1.1	0.9				
	1041	1	0.0	0.0	0.0	0.0	1	1.0	0.0	115.0	9	1.1	0.9				
	1042	1	0.0	0.0	0.0	0.0	1	1.0	0.0	13.8	9	1.1	0.9				
	1043	2	0.0	0.0	0.0	0.0	1	1.0	0.0	13.8	9	1.1	0.9				
	1044	1	14.679999999999998	4.16	0.0	0.0	1	1.0	0.0	115.0	9	1.1	0.9				
	1045	1	98.56	27.93	0.0	0.0	1	1.0	0.0	115.0	9	1.1	0.9				
	1046	1	11.08	3.1400000000000006	0.0	12.0	1	1.0	0.0	115.0	9	1.1	0.9				
	1047	1	0.0	0.0	0.0	0.0	1	1.0	0.0	115.0	9	1.1	0.9				
	1048	1	0.0	0.0	0.0	0.0	1	1.0	0.0	18.0	9	1.1	0.9				
	1049	1	0.0	0.0	0.0	0.0	1	1.0	0.0	18.0	9	1.1	0.9				
	1050	2	0.0	0.0	0.0	0.0	1	1.0	0.0	18.0	9	1.1	0.9				
	1051	2	0.0	0.0	0.0	0.0	1	1.0	0.0	18.0	9	1.1	0.9				
	1052	2	0.0	0.0	0.0	0.0	1	1.0	0.0	18.0	9	1.1	0.9				
	1053	1	0.0	0.0	0.0	0.0	1	1.0	0.0	230.0	9	1.1	0.9				
	1054	1	14.99	4.25	0.0	0.0	1	1.0	0.0	115.0	9	1.1	0.9				
	1055	1	3.9800000000000004	1.13	0.0	0.0	1	1.0	0.0	115.0	9	1.1	0.9				
	1056	1	0.0	0.0	0.0	59.97	1	1.0	0.0	115.0	9	1.1	0.9				
	1057	1	0.0	0.0	0.0	0.0	1	1.0	0.0	18.0	9	1.1	0.9				
	1058	1	13.459999999999999	3.81	0.0	0.0	1	1.0	0.0	115.0	9	1.1	0.9				
	1059	1	0.0	0.0	0.0	0.0	1	1.0	0.0	22.0	9	1.1	0.9				
	1060	1	0.0	0.0	0.0	0.0	1	1.0	0.0	22.0	9	1.1	0.9				
	1061	1	0.0	0.0	0.0	0.0	1	1.0	0.0	115.0	9	1.1	0.9				
	1062	1	0.0	0.0	0.0	0.0	1	1.0	0.0	13.8	9	1.1	0.9				
	1063	1	0.0	0.0	0.0	0.0	1	1.0	0.0	13.8	9	1.1	0.9				
	1064	1	123.76	35.07	0.0	0.0	1	1.0	0.0	115.0	9	1.1	0.9				
	1065	1	0.0	0.0	0.0	0.0	1	1.0	0.0	115.0	9	1.1	0.9				
	1066	2	0.0	0.0	0.0	0.0	1	1.0	0.0	13.8	9	1.1	0.9				
	1067	1	101.55000000000001	28.77	0.0	0.0	1	1.0	0.0	115.0	9	1.1	0.9				
	1068	1	59.4	16.83	0.0	0.0	1	1.0	0.0	115.0	9	1.1	0.9				
	1069	1	0.0	0.0	0.0	0.0	1	1.0	0.0	115.0	9	1.1	0.9				
	1070	2	0.0	0.0	0.0	0.0	1	1.0	0.0	13.8	9	1.1	0.9				
	1071	1	91.46	25.91	0.0	0.0	1	1.0	0.0	115.0	9	1.1	0.9				
	1072	2	0.0	0.0	0.0	0.0	1	1.0	0.0	18.0	9	1.1	0.9				
	1073	2	0.0	0.0	0.0	0.0	1	1.0	0.0	18.0	9	1.1	0.9				
	1074	2	0.0	0.0	0.0	0.0	1	1.0	0.0	18.0	9	1.1	0.9				
	1075	2	0.0	0.0	0.0	0.0	1	1.0	0.0	18.0	9	1.1	0.9				
	1076	1	0.0	0.0	0.0	0.0	1	1.0	0.0	18.0	9	1.1	0.9				
	1077	1	0.0	0.0	0.0	0.0	1	1.0	0.0	18.0	9	1.1	0.9				
	1078	2	0.0	0.0	0.0	0.0	1	1.0	0.0	18.0	9	1.1	0.9				
	1079	2	0.0	0.0	0.0	0.0	1	1.0	0.0	500.0	9	1.1	0.9				
	1080	2	0.0	0.0	0.0	0.0	1	1.0	0.0	18.0	9	1.1	0.9				
	1081	1	0.0	0.0	0.0	56.89999999999999	1	1.0	0.0	230.0	9	1.1	0.9				
	1082	2	0.0	0.0	0.0	0.0	1	1.0	0.0	115.0	9	1.1	0.9				
	1083	1	39.95	11.32	0.0	26.150000000000002	1	1.0	0.0	115.0	9	1.1	0.9				
	1084	2	0.0	0.0	0.0	0.0	1	1.0	0.0	115.0	9	1.1	0.9				
	1085	1	21.3	6.03	0.0	0.0	1	1.0	0.0	115.0	9	1.1	0.9				
	1086	1	39.67	11.24	0.0	30.0	1	1.0	0.0	115.0	9	1.1	0.9				
	1087	1	0.91	0.26	0.0	8.66	1	1.0	0.0	115.0	9	1.1	0.9				
	1088	2	0.0	0.0	0.0	0.0	1	1.0	0.0	115.0	9	1.1	0.9				
	1089	1	40.6	11.5	0.0	0.0	1	1.0	0.0	115.0	9	1.1	0.9				
	1090	2	0.0	0.0	0.0	0.0	1	1.0	0.0	115.0	9	1.1	0.9				
	1091	1	11.62	3.29	0.0	0.0	1	1.0	0.0	161.0	9	1.1	0.9				
	2001	1	48.36	13.699999999999998	0.0	0.0	2	1.0	0.0	161.0	11	1.1	0.9				
	2002	1	0.0	0.0	0.0	0.0	2	1.0	0.0	500.0	11	1.1	0.9				
	2003	1	0.0	0.0	0.0	0.0	2	1.0	0.0	161.0	11	1.1	0.9				
	2004	1	0.0	0.0	0.0	0.0	2	1.0	0.0	13.8	11	1.1	0.9				
	2005	1	0.0	0.0	0.0	0.0	2	1.0	0.0	13.8	11	1.1	0.9				
	2006	1	0.0	0.0	0.0	0.0	2	1.0	0.0	13.8	11	1.1	0.9				
	2007	1	9.54	2.7	0.0	0.0	2	1.0	0.0	161.0	11	1.1	0.9				
	2008	1	8.06	2.28	0.0	0.0	2	1.0	0.0	161.0	10	1.1	0.9				
	2009	1	39.14	11.09	0.0	113.65	2	1.0	0.0	161.0	11	1.1	0.9				
	2010	1	56.81	16.09	0.0	22.39	2	1.0	0.0	161.0	10	1.1	0.9				
	2011	1	0.0	0.0	0.0	0.0	2	1.0	0.0	500.0	10	1.1	0.9				
	2012	1	0.0	0.0	0.0	0.0	2	1.0	0.0	161.0	10	1.1	0.9				
	2013	2	0.0	0.0	0.0	0.0	2	1.0	0.0	18.0	10	1.1	0.9				
	2014	1	25.429999999999996	7.200000000000001	0.0	0.0	2	1.0	0.0	161.0	10	1.1	0.9				
	2015	1	4.69	1.33	0.0	0.0	2	1.0	0.0	161.0	11	1.1	0.9				
	2016	1	69.27	19.63	0.0	0.0	2	1.0	0.0	161.0	11	1.1	0.9				
	2017	1	0.0	0.0	0.0	-200.0	2	1.0	0.0	500.0	10	1.1	0.9				
	2018	1	0.0	0.0	0.0	0.0	2	1.0	0.0	161.0	10	1.1	0.9				
	2019	1	0.0	0.0	0.0	0.0	2	1.0	0.0	20.0	10	1.1	0.9				
	2020	1	47.97	13.59	0.0	0.0	2	1.0	0.0	161.0	11	1.1	0.9				
	2021	1	0.0	0.0	0.0	0.0	2	1.0	0.0	500.0	11	1.1	0.9				
	2022	1	11.56	3.2799999999999994	0.0	0.0	2	1.0	0.0	161.0	11	1.1	0.9				
	2023	2	0.0	0.0	0.0	0.0	2	1.0	0.0	13.8	11	1.1	0.9				
	2024	2	0.0	0.0	0.0	0.0	2	1.0	0.0	13.8	11	1.1	0.9				
	2025	1	39.62	11.23	0.0	0.0	2	1.0	0.0	161.0	11	1.1	0.9				
	2026	1	18.57	5.26	0.0	0.0	2	1.0	0.0	161.0	10	1.1	0.9				
	2027	1	3.55	1.01	0.0	0.0	2	1.0	0.0	161.0	11	1.1	0.9				
	2028	1	14.24	4.03	0.0	0.0	2	1.0	0.0	161.0	11	1.1	0.9				
	2029	1	3.2	0.91	0.0	0.0	2	1.0	0.0	161.0	10	1.1	0.9				
	2030	1	47.15	13.36	0.0	0.0	2	1.0	0.0	161.0	11	1.1	0.9				
	2031	1	5.77	1.63	0.0	0.0	2	1.0	0.0	161.0	10	1.1	0.9				
	2032	1	3.35	0.95	0.0	0.0	2	1.0	0.0	161.0	11	1.1	0.9				
	2033	1	13.570000000000002	3.85	0.0	0.0	2	1.0	0.0	161.0	11	1.1	0.9				
	2034	1	5.34	1.51	0.0	0.0	2	1.0	0.0	161.0	11	1.1	0.9				
	2035	1	4.68	1.33	0.0	0.0	2	1.0	0.0	161.0	10	1.1	0.9				
	2036	1	41.59	11.78	0.0	0.0	2	1.0	0.0	161.0	11	1.1	0.9				
	2037	1	3.5000000000000004	0.9899999999999999	0.0	0.0	2	1.0	0.0	161.0	11	1.1	0.9				
	2038	1	2.6	0.74	0.0	0.0	2	1.0	0.0	161.0	11	1.1	0.9				
	2039	1	5.56	1.58	0.0	0.0	2	1.0	0.0	161.0	11	1.1	0.9				
	2040	1	15.9	4.51	0.0	0.0	2	1.0	0.0	161.0	11	1.1	0.9				
	2041	1	0.0	0.0	0.0	0.0	2	1.0	0.0	161.0	10	1.1	0.9				
	2042	2	0.0	0.0	0.0	0.0	2	1.0	0.0	18.0	10	1.1	0.9				
	2043	1	4.24	1.2	0.0	0.0	2	1.0	0.0	161.0	11	1.1	0.9				
	2044	1	27.399999999999995	7.76	0.0	0.0	2	1.0	0.0	161.0	11	1.1	0.9				
	2045	1	22.61	6.4	0.0	0.0	2	1.0	0.0	161.0	11	1.1	0.9				
	2046	1	22.13	6.27	0.0	0.0	2	1.0	0.0	161.0	11	1.1	0.9				
	2047	1	14.96	4.24	0.0	0.0	2	1.0	0.0	161.0	11	1.1	0.9				
	2048	1	6.419999999999999	1.82	0.0	0.0	2	1.0	0.0	161.0	10	1.1	0.9				
	2049	1	11.57	3.2799999999999994	0.0	0.0	2	1.0	0.0	161.0	10	1.1	0.9				
	2050	1	3.66	1.04	0.0	0.0	2	1.0	0.0	161.0	11	1.1	0.9				
	2051	1	17.85	5.06	0.0	0.0	2	1.0	0.0	161.0	11	1.1	0.9				
	2052	1	24.84	7.04	0.0	0.0	2	1.0	0.0	161.0	10	1.1	0.9				
	2053	1	29.13	8.25	0.0	0.0	2	1.0	0.0	161.0	11	1.1	0.9				
	2054	1	0.0	0.0	0.0	0.0	2	1.0	0.0	500.0	11	1.1	0.9				
	2055	1	49.62	14.06	0.0	0.0	2	1.0	0.0	161.0	11	1.1	0.9				
	2056	1	0.0	0.0	0.0	0.0	2	1.0	0.0	18.0	11	1.1	0.9				
	2057	2	0.0	0.0	0.0	0.0	2	1.0	0.0	18.0	11	1.1	0.9				
	2058	1	0.0	0.0	0.0	0.0	2	1.0	0.0	161.0	10	1.1	0.9				
	2059	2	0.0	0.0	0.0	0.0	2	1.0	0.0	13.8	10	1.1	0.9				
	2060	1	3.8	1.08	0.0	0.0	2	1.0	0.0	161.0	11	1.1	0.9				
	2061	1	0.0	0.0	0.0	0.0	2	1.0	0.0	161.0	10	1.1	0.9				
	2062	2	0.0	0.0	0.0	0.0	2	1.0	0.0	18.0	10	1.1	0.9				
	2063	1	65.62	18.59	0.0	40.0	2	1.0	0.0	161.0	11	1.1	0.9				
	2064	1	10.05	2.85	0.0	0.0	2	1.0	0.0	161.0	11	1.1	0.9				
	2065	1	78.36	22.2	0.0	94.98	2	1.0	0.0	161.0	11	1.1	0.9				
	2066	1	7.109999999999999	2.02	0.0	0.0	2	1.0	0.0	161.0	10	1.1	0.9				
	2067	1	53.97	15.289999999999997	0.0	0.0	2	1.0	0.0	161.0	11	1.1	0.9				
	2068	1	5.76	1.63	0.0	0.0	2	1.0	0.0	161.0	11	1.1	0.9				
	2069	1	21.92	6.21	0.0	110.69	2	1.0	0.0	161.0	11	1.1	0.9				
	2070	1	0.0	0.0	0.0	0.0	2	1.0	0.0	161.0	11	1.1	0.9				
	2071	2	0.0	0.0	0.0	0.0	2	1.0	0.0	18.0	11	1.1	0.9				
	2072	1	9.71	2.75	0.0	0.0	2	1.0	0.0	161.0	11	1.1	0.9				
	2073	1	0.0	0.0	0.0	0.0	2	1.0	0.0	161.0	10	1.1	0.9				
	2074	1	0.0	0.0	0.0	0.0	2	1.0	0.0	115.0	10	1.1	0.9				
	2075	1	0.0	0.0	0.0	0.0	2	1.0	0.0	115.0	10	1.1	0.9				
	2076	2	0.0	0.0	0.0	0.0	2	1.0	0.0	24.0	10	1.1	0.9				
	2077	1	0.0	0.0	0.0	0.0	2	1.0	0.0	161.0	11	1.1	0.9				
	2078	2	0.0	0.0	0.0	0.0	2	1.0	0.0	13.8	11	1.1	0.9				
	2079	1	4.48	1.27	0.0	0.0	2	1.0	0.0	161.0	10	1.1	0.9				
	2080	1	16.93	4.8	0.0	0.0	2	1.0	0.0	161.0	11	1.1	0.9				
	2081	1	4.46	1.26	0.0	0.0	2	1.0	0.0	161.0	11	1.1	0.9				
	2082	1	59.03	16.73	0.0	0.0	2	1.0	0.0	161.0	11	1.1	0.9				
	2083	2	0.0	0.0	0.0	0.0	2	1.0	0.0	20.0	11	1.1	0.9				
	2084	1	0.0	0.0	0.0	0.0	2	1.0	0.0	20.0	11	1.1	0.9				
	2085	1	0.0	0.0	0.0	0.0	2	1.0	0.0	20.0	11	1.1	0.9				
	2086	1	2.19	0.62	0.0	0.0	2	1.0	0.0	161.0	11	1.1	0.9				
	2087	1	7.9	2.24	0.0	0.0	2	1.0	0.0	161.0	10	1.1	0.9				
	2088	1	0.0	0.0	0.0	0.0	2	1.0	0.0	161.0	11	1.1	0.9				
	2089	2	0.0	0.0	0.0	0.0	2	1.0	0.0	24.0	11	1.1	0.9				
	2090	1	2.42	0.69	0.0	0.0	2	1.0	0.0	161.0	11	1.1	0.9				
	2091	1	17.05	4.83	0.0	0.0	2	1.0	0.0	161.0	10	1.1	0.9				
	2092	1	24.11	6.83	0.0	0.0	2	1.0	0.0	161.0	11	1.1	0.9				
	2093	1	0.0	0.0	0.0	0.0	2	1.0	0.0	161.0	10	1.1	0.9				
	2094	1	0.0	0.0	0.0	0.0	2	1.0	0.0	13.8	10	1.1	0.9				
	2095	1	0.0	0.0	0.0	0.0	2	1.0	0.0	13.8	10	1.1	0.9				
	2096	1	0.0	0.0	0.0	-122.33000000000001	2	1.0	0.0	500.0	10	1.1	0.9				
	2097	1	0.0	0.0	0.0	0.0	2	1.0	0.0	230.0	10	1.1	0.9				
	2098	1	0.0	0.0	0.0	0.0	2	1.0	0.0	161.0	10	1.1	0.9				
	2099	2	0.0	0.0	0.0	0.0	2	1.0	0.0	18.0	10	1.1	0.9				
	2100	2	0.0	0.0	0.0	0.0	2	1.0	0.0	18.0	10	1.1	0.9				
	2101	1	0.0	0.0	0.0	0.0	2	1.0	0.0	500.0	11	1.1	0.9				
	2102	1	0.0	0.0	0.0	0.0	2	1.0	0.0	161.0	11	1.1	0.9				
	2103	1	0.0	0.0	0.0	0.0	2	1.0	0.0	20.0	11	1.1	0.9				
	2104	1	0.0	0.0	0.0	0.0	2	1.0	0.0	20.0	11	1.1	0.9				
	2105	1	0.0	0.0	0.0	0.0	2	1.0	0.0	20.0	11	1.1	0.9				
	2106	1	14.400000000000002	4.08	0.0	0.0	2	1.0	0.0	161.0	11	1.1	0.9				
	2107	1	74.15	21.01	0.0	0.0	2	1.0	0.0	161.0	11	1.1	0.9				
	2108	1	2.14	0.61	0.0	0.0	2	1.0	0.0	161.0	10	1.1	0.9				
	2109	1	33.81	9.58	0.0	0.0	2	1.0	0.0	161.0	11	1.1	0.9				
...
];

%% generator data
%    bus    Pg    Qg    Qmax    Qmin    Vg    mBase    status    Pmax    Pmin    Pc1    Pc2    Qc1min    Qc1max    Qc2min    Qc2max    ramp_agc    ramp_10    ramp_30    ramp_q    apf
mpc.gen = [
	1004	158.25	7.28	44.94	-30.380000000000003	1.0	253.2	1	158.25	158.25	0.0	0.0	0.0	0.0	0.0	0.0	0.0	0.0	0.0	0.0	211.0				
	1006	25.730000000000004	1.185	7.31	-4.94	1.0	41.16	1	25.730000000000004	25.730000000000004	0.0	0.0	0.0	0.0	0.0	0.0	0.0	0.0	0.0	0.0	34.3				
	1009	61.870000000000005	2.845	17.57	-11.88	1.0	99.0	1	61.870000000000005	61.870000000000005	0.0	0.0	0.0	0.0	0.0	0.0	0.0	0.0	0.0	0.0	82.5				
	1011	6.5	0.0	0.0	0.0	1.0	12.0	1	10.0	3.0	0.0	0.0	0.0	0.0	0.0	0.0	0.0	0.0	0.0	0.0	10.0				
	1021	149.63	6.88	42.49	-28.73	1.0	239.4	1	149.63	149.63	0.0	0.0	0.0	0.0	0.0	0.0	0.0	0.0	0.0	0.0	199.5				
	1023	135.0	6.21	38.34	-25.920000000000005	1.0	216.0	1	135.0	135.0	0.0	0.0	0.0	0.0	0.0	0.0	0.0	0.0	0.0	0.0	180.0				
	1026	93.15	4.285	26.450000000000003	-17.88	1.0	149.04	1	93.15	93.15	0.0	0.0	0.0	0.0	0.0	0.0	0.0	0.0	0.0	0.0	124.2				
	1033	208.5	9.59	59.209999999999994	-40.03	1.0	333.6	1	208.5	208.5	0.0	0.0	0.0	0.0	0.0	0.0	0.0	0.0	0.0	0.0	278.0				
	1035	67.5	3.105	19.17	-12.960000000000003	1.0	108.0	1	67.5	67.5	0.0	0.0	0.0	0.0	0.0	0.0	0.0	0.0	0.0	0.0	90.0				
	1039	110.63000000000001	5.09	31.42	-21.24	1.0	177.0	1	110.63000000000001	110.63000000000001	0.0	0.0	0.0	0.0	0.0	0.0	0.0	0.0	0.0	0.0	147.5				
	1042	0.0	0.0	25.96	-17.55	1.0	146.28	0	121.9	36.57	0.0	0.0	0.0	0.0	0.0	0.0	0.0	0.0	0.0	0.0	121.9				
	1043	44.1	2.025	12.520000000000001	-8.47	1.0	70.56	1	44.1	44.1	0.0	0.0	0.0	0.0	0.0	0.0	0.0	0.0	0.0	0.0	58.8				
	1048	0.0	0.0	165.53	-36.1	1.0	390.24	0	325.2	97.56	0.0	0.0	0.0	0.0	0.0	0.0	0.0	0.0	0.0	0.0	325.2				
	1049	0.0	0.0	165.53	-36.1	1.0	390.24	0	325.2	97.56	0.0	0.0	0.0	0.0	0.0	0.0	0.0	0.0	0.0	0.0	325.2				
	1050	58.10999999999999	17.79	45.5	-9.92	1.0	107.28	1	89.4	26.82	0.0	0.0	0.0	0.0	0.0	0.0	0.0	0.0	0.0	0.0	89.4				
	1051	58.10999999999999	17.79	45.5	-9.92	1.0	107.28	1	89.4	26.82	0.0	0.0	0.0	0.0	0.0	0.0	0.0	0.0	0.0	0.0	89.4				
	1052	58.10999999999999	17.79	45.5	-9.92	1.0	107.28	1	89.4	26.82	0.0	0.0	0.0	0.0	0.0	0.0	0.0	0.0	0.0	0.0	89.4				
	1053	0.0	0.0	91.01	-19.85	1.0	214.56	0	178.8	53.64	0.0	0.0	0.0	0.0	0.0	0.0	0.0	0.0	0.0	0.0	178.8				
	1057	0.0	0.0	25.56	-17.28	1.0	144.0	0	120.0	36.0	0.0	0.0	0.0	0.0	0.0	0.0	0.0	0.0	0.0	0.0	120.0				
	1059	0.0	0.0	2.85	-0.62	1.0	6.72	0	5.6	1.68	0.0	0.0	0.0	0.0	0.0	0.0	0.0	0.0	0.0	0.0	5.6				
	1060	0.0	0.0	1.02	-0.22	1.0	2.4	0	2.0	0.6	0.0	0.0	0.0	0.0	0.0	0.0	0.0	0.0	0.0	0.0	2.0				
	1062	0.0	0.0	0.0	0.0	1.0	1.8	0	1.5	0.45000000000000007	0.0	0.0	0.0	0.0	0.0	0.0	0.0	0.0	0.0	0.0	1.5				
	1063	0.0	0.0	0.0	0.0	1.0	276.0	0	229.99999999999997	69.0	0.0	0.0	0.0	0.0	0.0	0.0	0.0	0.0	0.0	0.0	230.0				
	1066	106.88	4.915	30.349999999999998	-20.52	1.0	171.0	1	106.88	106.88	0.0	0.0	0.0	0.0	0.0	0.0	0.0	0.0	0.0	0.0	142.5				
	1070	120.38	5.54	34.19	-23.11	1.0	192.6	1	120.38	120.38	0.0	0.0	0.0	0.0	0.0	0.0	0.0	0.0	0.0	0.0	160.5				
	1072	124.885	38.235	97.8	-21.33	1.0	230.56	1	192.13	57.64	0.0	0.0	0.0	0.0	0.0	0.0	0.0	0.0	0.0	0.0	192.13				
	1073	124.885	38.235	97.8	-21.33	1.0	230.56	1	192.13	57.64	0.0	0.0	0.0	0.0	0.0	0.0	0.0	0.0	0.0	0.0	192.13				
	1074	124.885	38.235	97.8	-21.33	1.0	230.56	1	192.13	57.64	0.0	0.0	0.0	0.0	0.0	0.0	0.0	0.0	0.0	0.0	192.13				
	1075	124.885	38.235	97.8	-21.33	1.0	230.56	1	192.13	57.64	0.0	0.0	0.0	0.0	0.0	0.0	0.0	0.0	0.0	0.0	192.13				
	1076	0.0	0.0	97.8	-21.33	1.0	230.56	0	192.13	57.64	0.0	0.0	0.0	0.0	0.0	0.0	0.0	0.0	0.0	0.0	192.13				
	1077	0.0	0.0	97.8	-21.33	1.0	230.56	0	192.13	57.64	0.0	0.0	0.0	0.0	0.0	0.0	0.0	0.0	0.0	0.0	192.13				
	1078	62.075	19.005	48.61	-10.6	1.0	114.6	1	95.5	28.65	0.0	0.0	0.0	0.0	0.0	0.0	0.0	0.0	0.0	0.0	95.5				
	1079	62.075	19.005	48.61	-10.6	1.0	114.6	1	95.5	28.65	0.0	0.0	0.0	0.0	0.0	0.0	0.0	0.0	0.0	0.0	95.5				
	1080	62.075	19.005	48.61	-10.6	1.0	114.6	1	95.5	28.65	0.0	0.0	0.0	0.0	0.0	0.0	0.0	0.0	0.0	0.0	95.5				
	1081	0.0	0.0	145.83	-31.8	1.0	343.8	0	286.5	85.95	0.0	0.0	0.0	0.0	0.0	0.0	0.0	0.0	0.0	0.0	286.5				
	1082	112.5	5.175	31.95	-21.6	1.0	180.0	1	112.5	112.5	0.0	0.0	0.0	0.0	0.0	0.0	0.0	0.0	0.0	0.0	150.0				
	1084	86.62	3.9849999999999994	24.6	-16.63	1.0	138.6	1	86.62	86.62	0.0	0.0	0.0	0.0	0.0	0.0	0.0	0.0	0.0	0.0	115.5				
	1088	56.25	2.585	15.97	-10.8	1.0	90.0	1	56.25	56.25	0.0	0.0	0.0	0.0	0.0	0.0	0.0	0.0	0.0	0.0	75.0				
	1090	114.36999999999999	5.26	32.48	-21.96	1.0	183.0	1	114.36999999999999	114.36999999999999	0.0	0.0	0.0	0.0	0.0	0.0	0.0	0.0	0.0	0.0	152.5				
	1090	27.0	1.245	7.670000000000001	-5.18	1.0	43.2	1	27.0	27.0	0.0	0.0	0.0	0.0	0.0	0.0	0.0	0.0	0.0	0.0	36.0				
	2004	0.0	0.0	199.43	-43.49	1.0	470.16	0	391.8	117.54	0.0	0.0	0.0	0.0	0.0	0.0	0.0	0.0	0.0	0.0	391.8				
	2005	0.0	0.0	199.43	-43.49	1.0	470.16	0	391.8	117.54	0.0	0.0	0.0	0.0	0.0	0.0	0.0	0.0	0.0	0.0	391.8				
	2006	0.0	0.0	199.43	-43.49	1.0	470.16	0	391.8	117.54	0.0	0.0	0.0	0.0	0.0	0.0	0.0	0.0	0.0	0.0	391.8				
	2013	150.45	6.92	42.73	-28.89	1.0	240.72	1	150.45	150.45	0.0	0.0	0.0	0.0	0.0	0.0	0.0	0.0	0.0	0.0	200.6				
	2019	0.0	0.0	46.43	-31.39	1.0	261.6	0	218.00000000000003	65.4	0.0	0.0	0.0	0.0	0.0	0.0	0.0	0.0	0.0	0.0	218.0				
	2023	54.165	16.585	42.42	-9.25	1.0	100.0	1	83.33	25.0	0.0	0.0	0.0	0.0	0.0	0.0	0.0	0.0	0.0	0.0	83.33				
	2024	108.33500000000001	33.165	84.83	-18.5	1.0	200.0	1	166.67	50.0	0.0	0.0	0.0	0.0	0.0	0.0	0.0	0.0	0.0	0.0	166.67				
	2042	59.699999999999996	2.745	16.95	-11.46	1.0	95.52	1	59.699999999999996	59.699999999999996	0.0	0.0	0.0	0.0	0.0	0.0	0.0	0.0	0.0	0.0	79.6				
	2056	0.0	0.0	2.8	-0.73	1.0	7.2	0	6.0	1.8000000000000003	0.0	0.0	0.0	0.0	0.0	0.0	0.0	0.0	0.0	0.0	6.0				
	2057	468.0	123.83999999999999	335.52	-87.84	1.0	864.0	1	720.0	216.0	0.0	0.0	0.0	0.0	0.0	0.0	0.0	0.0	0.0	0.0	720.0				
	2059	60.0	2.76	17.04	-11.52	1.0	96.0	1	60.0	60.0	0.0	0.0	0.0	0.0	0.0	0.0	0.0	0.0	0.0	0.0	80.0				
	2062	101.55000000000001	4.67	28.84	-19.5	1.0	162.48	1	101.55000000000001	101.55000000000001	0.0	0.0	0.0	0.0	0.0	0.0	0.0	0.0	0.0	0.0	135.4				
	2071	112.5	5.175	31.95	-21.6	1.0	180.0	1	112.5	112.5	0.0	0.0	0.0	0.0	0.0	0.0	0.0	0.0	0.0	0.0	150.0				
	2076	22.5	1.035	6.39	-4.32	1.0	36.0	1	22.5	22.5	0.0	0.0	0.0	0.0	0.0	0.0	0.0	0.0	0.0	0.0	30.0				
	2078	84.38	3.88	23.96	-16.2	1.0	135.0	1	84.38	84.38	0.0	0.0	0.0	0.0	0.0	0.0	0.0	0.0	0.0	0.0	112.5				
	2083	13.0	3.9800000000000004	10.18	-2.22	1.0	24.0	1	20.0	6.0	0.0	0.0	0.0	0.0	0.0	0.0	0.0	0.0	0.0	0.0	20.0				
	2084	0.0	0.0	10.18	-2.22	1.0	24.0	0	20.0	6.0	0.0	0.0	0.0	0.0	0.0	0.0	0.0	0.0	0.0	0.0	20.0				
	2085	0.0	0.0	20.36	-4.44	1.0	48.0	0	40.0	12.0	0.0	0.0	0.0	0.0	0.0	0.0	0.0	0.0	0.0	0.0	40.0				
	2089	50.7	2.335	14.400000000000002	-9.73	1.0	81.12	1	50.7	50.7	0.0	0.0	0.0	0.0	0.0	0.0	0.0	0.0	0.0	0.0	67.6				
	2094	0.0	0.0	2.13	-1.44	1.0	12.0	0	10.0	3.0	0.0	0.0	0.0	0.0	0.0	0.0	0.0	0.0	0.0	0.0	10.0				
	2095	0.0	0.0	16.93	-11.45	1.0	95.4	0	79.5	23.85	0.0	0.0	0.0	0.0	0.0	0.0	0.0	0.0	0.0	0.0	79.5				
	2099	7.5	0.345	2.13	-1.44	1.0	12.0	1	7.5	7.5	0.0	0.0	0.0	0.0	0.0	0.0	0.0	0.0	0.0	0.0	10.0				
	2100	112.5	5.175	31.95	-21.6	1.0	180.0	1	112.5	112.5	0.0	0.0	0.0	0.0	0.0	0.0	0.0	0.0	0.0	0.0	150.0				
	2103	0.0	0.0	136.28	-29.719999999999995	1.0	321.28	0	267.73	80.32	0.0	0.0	0.0	0.0	0.0	0.0	0.0	0.0	0.0	0.0	267.73				
	2104	0.0	0.0	136.28	-29.719999999999995	1.0	321.28	0	267.73	80.32	0.0	0.0	0.0	0.0	0.0	0.0	0.0	0.0	0.0	0.0	267.73				
	2105	0.0	0.0	136.28	-29.719999999999995	1.0	321.28	0	267.73	80.32	0.0	0.0	0.0	0.0	0.0	0.0	0.0	0.0	0.0	0.0	267.73				
	2115	120.065	36.76	94.02	-20.5	1.0	221.66	1	184.72	55.40999999999999	0.0	0.0	0.0	0.0	0.0	0.0	0.0	0.0	0.0	0.0	184.72				
	2116	120.065	36.76	94.02	-20.5	1.0	221.66	1	184.72	55.40999999999999	0.0	0.0	0.0	0.0	0.0	0.0	0.0	0.0	0.0	0.0	184.72				
	2117	120.065	36.76	94.02	-20.5	1.0	221.66	1	184.72	55.40999999999999	0.0	0.0	0.0	0.0	0.0	0.0	0.0	0.0	0.0	0.0	184.72				
	2118	120.065	36.76	94.02	-20.5	1.0	221.66	1	184.72	55.40999999999999	0.0	0.0	0.0	0.0	0.0	0.0	0.0	0.0	0.0	0.0	184.72				
	2119	120.065	36.76	94.02	-20.5	1.0	221.66	1	184.72	55.40999999999999	0.0	0.0	0.0	0.0	0.0	0.0	0.0	0.0	0.0	0.0	184.72				
	2120	120.065	36.76	94.02	-20.5	1.0	221.66	1	184.72	55.40999999999999	0.0	0.0	0.0	0.0	0.0	0.0	0.0	0.0	0.0	0.0	184.72				
	2123	136.28	6.27	38.7	-26.16	1.0	218.04	1	136.28	136.28	0.0	0.0	0.0	0.0	0.0	0.0	0.0	0.0	0.0	0.0	181.7				
	2127	216.45	9.955	61.47	-41.56	1.0	346.32	1	216.45	216.45	0.0	0.0	0.0	0.0	0.0	0.0	0.0	0.0	0.0	0.0	288.6				
	3004	28.13	1.295	7.99	-5.4	1.0	45.0	1	28.13	28.13	0.0	0.0	0.0	0.0	0.0	0.0	0.0	0.0	0.0	0.0	37.5				
	3017	127.12999999999998	5.845	36.1	-24.41	1.0	203.4	1	127.12999999999998	127.12999999999998	0.0	0.0	0.0	0.0	0.0	0.0	0.0	0.0	0.0	0.0	169.5				
	3020	112.5	5.175	31.95	-21.6	1.0	180.0	1	112.5	112.5	0.0	0.0	0.0	0.0	0.0	0.0	0.0	0.0	0.0	0.0	150.0				
	3028	150.0	6.9	42.6	-28.800000000000004	1.0	240.0	1	150.0	150.0	0.0	0.0	0.0	0.0	0.0	0.0	0.0	0.0	0.0	0.0	200.0				
	3034	97.87	4.505	27.800000000000004	-18.79	1.0	156.6	1	97.87	97.87	0.0	0.0	0.0	0.0	0.0	0.0	0.0	0.0	0.0	0.0	130.5				
	3039	156.75	7.21	44.52	-30.099999999999998	1.0	250.8	1	156.75	156.75	0.0	0.0	0.0	0.0	0.0	0.0	0.0	0.0	0.0	0.0	209.0				
	3043	0.0	0.0	0.66	-0.14	1.0	1.56	0	1.3	0.39	0.0	0.0	0.0	0.0	0.0	0.0	0.0	0.0	0.0	0.0	1.3				
	3044	0.0	0.0	45.5	-9.92	1.0	107.28	0	89.4	26.82	0.0	0.0	0.0	0.0	0.0	0.0	0.0	0.0	0.0	0.0	89.4				
	3045	0.0	0.0	227.51999999999998	-49.62	1.0	536.4	0	447.0	134.1	0.0	0.0	0.0	0.0	0.0	0.0	0.0	0.0	0.0	0.0	447.0				
	3048	180.75	8.315	51.33	-34.7	1.0	289.2	1	180.75	180.75	0.0	0.0	0.0	0.0	0.0	0.0	0.0	0.0	0.0	0.0	241.0				
	3055	183.88	8.46	52.22	-35.3	1.0	294.2	1	183.88	183.88	0.0	0.0	0.0	0.0	0.0	0.0	0.0	0.0	0.0	0.0	245.17				
	3056	183.88	8.46	52.22	-35.3	1.0	294.2	1	183.88	183.88	0.0	0.0	0.0	0.0	0.0	0.0	0.0	0.0	0.0	0.0	245.17				
	3057	183.88	8.46	52.22	-35.3	1.0	294.2	1	183.88	183.88	0.0	0.0	0.0	0.0	0.0	0.0	0.0	0.0	0.0	0.0	245.17				
	3060	124.22	5.715	35.28	-23.85	1.0	198.75	1	124.22	124.22	0.0	0.0	0.0	0.0	0.0	0.0	0.0	0.0	0.0	0.0	165.63				
	3061	124.22	5.715	35.28	-23.85	1.0	198.75	1	124.22	124.22	0.0	0.0	0.0	0.0	0.0	0.0	0.0	0.0	0.0	0.0	165.63				
	3062	124.22	5.715	35.28	-23.85	1.0	198.75	1	124.22	124.22	0.0	0.0	0.0	0.0	0.0	0.0	0.0	0.0	0.0	0.0	165.63				
	3063	124.22	5.715	35.28	-23.85	1.0	198.75	1	124.22	124.22	0.0	0.0	0.0	0.0	0.0	0.0	0.0	0.0	0.0	0.0	165.63				
	3065	60.370000000000005	2.78	17.15	-11.59	1.0	96.6	1	60.370000000000005	60.370000000000005	0.0	0.0	0.0	0.0	0.0	0.0	0.0	0.0	0.0	0.0	80.5				
	3068	112.5	5.175	31.95	-21.6	1.0	180.0	1	112.5	112.5	0.0	0.0	0.0	0.0	0.0	0.0	0.0	0.0	0.0	0.0	150.0				
	3071	127.64999999999999	5.87	36.25	-24.51	1.0	204.24	1	127.64999999999999	127.64999999999999	0.0	0.0	0.0	0.0	0.0	0.0	0.0	0.0	0.0	0.0	170.2				
	3074	74.85	3.4450000000000003	21.26	-14.37	1.0	119.76	1	74.85	74.85	0.0	0.0	0.0	0.0	0.0	0.0	0.0	0.0	0.0	0.0	99.8				
	3081	186.75	8.59	53.04	-35.86	1.0	298.8	1	186.75	186.75	0.0	0.0	0.0	0.0	0.0	0.0	0.0	0.0	0.0	0.0	249.0				
	3084	174.37	8.02	49.52	-33.48	1.0	279.0	1	174.37	174.37	0.0	0.0	0.0	0.0	0.0	0.0	0.0	0.0	0.0	0.0	232.5				
	3086	56.25	2.585	15.97	-10.8	1.0	90.0	1	56.25	56.25	0.0	0.0	0.0	0.0	0.0	0.0	0.0	0.0	0.0	0.0	75.0				
	3087	0.0	0.0	15.97	-10.8	1.0	90.0	0	75.0	22.5	0.0	0.0	0.0	0.0	0.0	0.0	0.0	0.0	0.0	0.0	75.0				
	3092	150.0	6.9	42.6	-28.800000000000004	1.0	240.0	1	150.0	150.0	0.0	0.0	0.0	0.0	0.0	0.0	0.0	0.0	0.0	0.0	200.0				
	3095	90.45	4.16	25.69	-17.37	1.0	144.72	1	90.45	90.45	0.0	0.0	0.0	0.0	0.0	0.0	0.0	0.0	0.0	0.0	120.6				
	3098	120.0	5.52	34.08	-23.04	1.0	192.0	1	120.0	120.0	0.0	0.0	0.0	0.0	0.0	0.0	0.0	0.0	0.0	0.0	160.0				
	3105	44.5	8.165	17.07	-0.74	1.0	18.0	1	44.5	44.5	0.0	0.0	0.0	0.0	0.0	0.0	0.0	0.0	0.0	0.0	15.0				
	3106	53.02	29.895	62.480000000000004	-2.69	1.0	65.88	1	53.02	53.02	0.0	0.0	0.0	0.0	0.0	0.0	0.0	0.0	0.0	0.0	54.9				
	3110	63.0	2.895	17.89	-12.1	1.0	100.8	1	63.0	63.0	0.0	0.0	0.0	0.0	0.0	0.0	0.0	0.0	0.0	0.0	84.0				
	3112	56.10000000000001	2.58	15.93	-10.77	1.0	89.76	1	56.10000000000001	56.10000000000001	0.0	0.0	0.0	0.0	0.0	0.0	0.0	0.0	0.0	0.0	74.8				
	3113	56.10000000000001	2.58	15.93	-10.77	1.0	89.76	1	56.10000000000001	56.10000000000001	0.0	0.0	0.0	0.0	0.0	0.0	0.0	0.0	0.0	0.0	74.8				
	3117	47.25	2.175	13.419999999999998	-9.07	1.0	75.6	1	47.25	47.25	0.0	0.0	0.0	0.0	0.0	0.0	0.0	0.0	0.0	0.0	63.0				
	3118	90.0	4.14	25.56	-17.28	1.0	144.0	1	90.0	90.0	0.0	0.0	0.0	0.0	0.0	0.0	0.0	0.0	0.0	0.0	120.0				
	3120	29.7	0.0	0.0	0.0	1.0	47.52	1	29.7	29.7	0.0	0.0	0.0	0.0	0.0	0.0	0.0	0.0	0.0	0.0	39.6				
	3122	147.75	6.795	41.96	-28.37	1.0	236.4	1	147.75	147.75	0.0	0.0	0.0	0.0	0.0	0.0	0.0	0.0	0.0	0.0	197.0				
	3127	101.25	4.66	28.76	-19.44	1.0	162.0	1	101.25	101.25	0.0	0.0	0.0	0.0	0.0	0.0	0.0	0.0	0.0	0.0	135.0				
	3129	94.88	4.36	26.94	-18.22	1.0	151.8	1	94.88	94.88	0.0	0.0	0.0	0.0	0.0	0.0	0.0	0.0	0.0	0.0	126.5				
	3131	85.5	3.93	24.28	-16.42	1.0	136.8	1	85.5	85.5	0.0	0.0	0.0	0.0	0.0	0.0	0.0	0.0	0.0	0.0	114.0				
	3133	0.0	0.0	26.11	-5.69	1.0	61.56	0	51.300000000000004	15.39	0.0	0.0	0.0	0.0	0.0	0.0	0.0	0.0	0.0	0.0	51.3				
	3133	0.0	0.0	26.11	-5.69	1.0	61.56	0	51.300000000000004	15.39	0.0	0.0	0.0	0.0	0.0	0.0	0.0	0.0	0.0	0.0	51.3				
	3133	0.0	0.0	26.11	-5.69	1.0	61.56	0	51.300000000000004	15.39	0.0	0.0	0.0	0.0	0.0	0.0	0.0	0.0	0.0	0.0	51.3				
	3137	75.9	3.495	21.56	-14.57	1.0	121.44	1	75.9	75.9	0.0	0.0	0.0	0.0	0.0	0.0	0.0	0.0	0.0	0.0	101.2				
	3141	68.62	3.1549999999999994	19.49	-13.18	1.0	109.8	1	68.62	68.62	0.0	0.0	0.0	0.0	0.0	0.0	0.0	0.0	0.0	0.0	91.5				
	4010	151.2	6.955	42.94	-29.03	1.0	241.92	1	151.2	151.2	0.0	0.0	0.0	0.0	0.0	0.0	0.0	0.0	0.0	0.0	201.6				
	4026	266.5	70.52	191.06	-50.019999999999996	1.0	492.0	1	409.99999999999994	123.0	0.0	0.0	0.0	0.0	0.0	0.0	0.0	0.0	0.0	0.0	410.0				
	4030	404.56000000000006	107.055	290.04	-75.93	1.0	746.88	1	622.4	186.72	0.0	0.0	0.0	0.0	0.0	0.0	0.0	0.0	0.0	0.0	622.4				
	4045	93.4	17.16	35.86	-1.54	1.0	37.8	1	93.4	93.4	0.0	0.0	0.0	0.0	0.0	0.0	0.0	0.0	0.0	0.0	31.5				
	4046	28.499999999999996	5.235	10.94	-0.4699999999999999	1.0	11.52	1	28.499999999999996	28.499999999999996	0.0	0.0	0.0	0.0	0.0	0.0	0.0	0.0	0.0	0.0	9.6				
	4047	27.48	35.935	75.1	-3.2300000000000004	1.0	79.2	1	27.48	27.48	0.0	0.0	0.0	0.0	0.0	0.0	0.0	0.0	0.0	0.0	66.0				
	4050	150.0	6.9	42.6	-28.800000000000004	1.0	240.0	1	150.0	150.0	0.0	0.0	0.0	0.0	0.0	0.0	0.0	0.0	0.0	0.0	200.0				
	4052	28.73	8.795	22.5	-4.91	1.0	53.04	1	44.2	13.26	0.0	0.0	0.0	0.0	0.0	0.0	0.0	0.0	0.0	0.0	44.2				
	4058	93.6	28.660000000000004	73.3	-15.98	1.0	172.8	1	144.0	43.2	0.0	0.0	0.0	0.0	0.0	0.0	0.0	0.0	0.0	0.0	144.0				
	4059	93.6	28.660000000000004	73.3	-15.98	1.0	172.8	1	144.0	43.2	0.0	0.0	0.0	0.0	0.0	0.0	0.0	0.0	0.0	0.0	144.0				
	4060	93.6	28.660000000000004	73.3	-15.98	1.0	172.8	1	144.0	43.2	0.0	0.0	0.0	0.0	0.0	0.0	0.0	0.0	0.0	0.0	144.0				
	4061	112.015	34.295	87.72	-19.13	1.0	206.8	1	172.33	51.7	0.0	0.0	0.0	0.0	0.0	0.0	0.0	0.0	0.0	0.0	172.33				
	4062	112.015	34.295	87.72	-19.13	1.0	206.8	1	172.33	51.7	0.0	0.0	0.0	0.0	0.0	0.0	0.0	0.0	0.0	0.0	172.33				
	4063	112.015	34.295	87.72	-19.13	1.0	206.8	1	172.33	51.7	0.0	0.0	0.0	0.0	0.0	0.0	0.0	0.0	0.0	0.0	172.33				
	4065	30.55	9.35	23.92	-5.22	1.0	56.4	1	47.0	14.099999999999998	0.0	0.0	0.0	0.0	0.0	0.0	0.0	0.0	0.0	0.0	47.0				
	4075	0.0	0.0	89.75	-19.57	1.0	211.6	0	176.33	52.900000000000006	0.0	0.0	0.0	0.0	0.0	0.0	0.0	0.0	0.0	0.0	176.33				
	4076	114.615	35.09	89.75	-19.57	1.0	211.6	1	176.33	52.900000000000006	0.0	0.0	0.0	0.0	0.0	0.0	0.0	0.0	0.0	0.0	176.33				
	4077	114.615	35.09	89.75	-19.57	1.0	211.6	1	176.33	52.900000000000006	0.0	0.0	0.0	0.0	0.0	0.0	0.0	0.0	0.0	0.0	176.33				
	4082	158.21	48.435	123.89000000000001	-27.02	1.0	292.08	1	243.4	73.02	0.0	0.0	0.0	0.0	0.0	0.0	0.0	0.0	0.0	0.0	243.4				
	4083	158.21	48.435	123.89000000000001	-27.02	1.0	292.08	1	243.4	73.02	0.0	0.0	0.0	0.0	0.0	0.0	0.0	0.0	0.0	0.0	243.4				
	4084	158.21	48.435	123.89000000000001	-27.02	1.0	292.08	1	243.4	73.02	0.0	0.0	0.0	0.0	0.0	0.0	0.0	0.0	0.0	0.0	243.4				
	4085	228.8	70.05	179.17	-39.07	1.0	422.4	1	352.0	105.60000000000001	0.0	0.0	0.0	0.0	0.0	0.0	0.0	0.0	0.0	0.0	352.0				
	4090	0.0	0.0	0.65	-0.17	1.0	1.68	0	1.4	0.42	0.0	0.0	0.0	0.0	0.0	0.0	0.0	0.0	0.0	0.0	1.4				
	4091	15.275	4.04	10.95	-2.87	1.0	28.2	1	23.5	7.049999999999999	0.0	0.0	0.0	0.0	0.0	0.0	0.0	0.0	0.0	0.0	23.5				
	4092	0.0	0.0	3.54	-0.93	1.0	9.12	0	7.6	2.28	0.0	0.0	0.0	0.0	0.0	0.0	0.0	0.0	0.0	0.0	7.6				
	4093	18.2	4.815	13.05	-3.42	1.0	33.6	1	28.000000000000004	8.4	0.0	0.0	0.0	0.0	0.0	0.0	0.0	0.0	0.0	0.0	28.0				
	4094	18.2	4.815	13.05	-3.42	1.0	33.6	1	28.000000000000004	8.4	0.0	0.0	0.0	0.0	0.0	0.0	0.0	0.0	0.0	0.0	28.0				
	4095	18.2	4.815	13.05	-3.42	1.0	33.6	1	28.000000000000004	8.4	0.0	0.0	0.0	0.0	0.0	0.0	0.0	0.0	0.0	0.0	28.0				
	4096	0.0	0.0	13.05	-3.42	1.0	33.6	0	28.000000000000004	8.4	0.0	0.0	0.0	0.0	0.0	0.0	0.0	0.0	0.0	0.0	28.0				
	4097	18.2	4.815	13.05	-3.42	1.0	33.6	1	28.000000000000004	8.4	0.0	0.0	0.0	0.0	0.0	0.0	0.0	0.0	0.0	0.0	28.0				
	4098	0.0	0.0	13.05	-3.42	1.0	33.6	0	28.000000000000004	8.4	0.0	0.0	0.0	0.0	0.0	0.0	0.0	0.0	0.0	0.0	28.0				
	4105	135.0	6.21	38.34	-25.920000000000005	1.0	216.0	1	135.0	135.0	0.0	0.0	0.0	0.0	0.0	0.0	0.0	0.0	0.0	0.0	180.0				
	4115	85.67	26.229999999999997	67.09	-14.63	1.0	158.16	1	131.8	39.54	0.0	0.0	0.0	0.0	0.0	0.0	0.0	0.0	0.0	0.0	131.8				
	4116	85.67	26.229999999999997	67.09	-14.63	1.0	158.16	1	131.8	39.54	0.0	0.0	0.0	0.0	0.0	0.0	0.0	0.0	0.0	0.0	131.8				
	4133	0.0	0.0	17.1	-3.73	1.0	40.32	0	33.6	10.08	0.0	0.0	0.0	0.0	0.0	0.0	0.0	0.0	0.0	0.0	33.6				
	4134	21.84	6.685	17.1	-3.73	1.0	40.32	1	33.6	10.08	0.0	0.0	0.0	0.0	0.0	0.0	0.0	0.0	0.0	0.0	33.6				
	4135	21.84	6.685	17.1	-3.73	1.0	40.32	1	33.6	10.08	0.0	0.0	0.0	0.0	0.0	0.0	0.0	0.0	0.0	0.0	33.6				
	4136	21.84	6.685	17.1	-3.73	1.0	40.32	1	33.6	10.08	0.0	0.0	0.0	0.0	0.0	0.0	0.0	0.0	0.0	0.0	33.6				
	4137	0.0	0.0	34.2	-7.46	1.0	80.64	0	67.2	20.16	0.0	0.0	0.0	0.0	0.0	0.0	0.0	0.0	0.0	0.0	67.2				
	4138	0.0	0.0	33.59	-7.33	1.0	79.2	0	66.0	19.8	0.0	0.0	0.0	0.0	0.0	0.0	0.0	0.0	0.0	0.0	66.0				
	4142	141.0	6.485	40.04	-27.07	1.0	225.6	1	141.0	141.0	0.0	0.0	0.0	0.0	0.0	0.0	0.0	0.0	0.0	0.0	188.0				
	4153	212.4	9.77	60.31999999999999	-40.78	1.0	339.84	1	212.4	212.4	0.0	0.0	0.0	0.0	0.0	0.0	0.0	0.0	0.0	0.0	283.2				
	4160	128.55	39.355	100.66	-21.95	1.0	237.32	1	197.77	59.32999999999999	0.0	0.0	0.0	0.0	0.0	0.0	0.0	0.0	0.0	0.0	197.77				
	4161	128.55	39.355	100.66	-21.95	1.0	237.32	1	197.77	59.32999999999999	0.0	0.0	0.0	0.0	0.0	0.0	0.0	0.0	0.0	0.0	197.77				
	4162	128.55	39.355	100.66	-21.95	1.0	237.32	1	197.77	59.32999999999999	0.0	0.0	0.0	0.0	0.0	0.0	0.0	0.0	0.0	0.0	197.77				
	4163	0.0	0.0	4.58	-1.0	1.0	10.8	0	9.0	2.7	0.0	0.0	0.0	0.0	0.0	0.0	0.0	0.0	0.0	0.0	9.0				
	4166	150.75	6.935	42.81	-28.939999999999998	1.0	241.2	1	150.75	150.75	0.0	0.0	0.0	0.0	0.0	0.0	0.0	0.0	0.0	0.0	201.0				
	4177	112.5	5.175	31.95	-21.6	1.0	180.0	1	112.5	112.5	0.0	0.0	0.0	0.0	0.0	0.0	0.0	0.0	0.0	0.0	150.0				
	4181	150.07	6.905	42.62	-28.809999999999995	1.0	240.12	1	150.07	150.07	0.0	0.0	0.0	0.0	0.0	0.0	0.0	0.0	0.0	0.0	200.1				
	4183	152.25	7.005	43.24	-29.23	1.0	243.6	1	152.25	152.25	0.0	0.0	0.0	0.0	0.0	0.0	0.0	0.0	0.0	0.0	203.0				
	4192	48.75	14.92	38.17	-8.33	1.0	90.0	1	75.0	22.5	0.0	0.0	0.0	0.0	0.0	0.0	0.0	0.0	0.0	0.0	75.0				
	4192	119.45000000000002	36.57	93.54	-20.4	1.0	220.52	1	183.77	55.13	0.0	0.0	0.0	0.0	0.0	0.0	0.0	0.0	0.0	0.0	183.77				
	4192	0.0	0.0	12.22	-2.66	1.0	28.8	0	24.0	7.200000000000001	0.0	0.0	0.0	0.0	0.0	0.0	0.0	0.0	0.0	0.0	24.0				
	4192	39.65	12.14	31.05	-6.77	1.0	73.2	1	61.0	18.3	0.0	0.0	0.0	0.0	0.0	0.0	0.0	0.0	0.0	0.0	61.0				
	4192	6.76	2.07	5.29	-1.15	1.0	12.48	1	10.4	3.12	0.0	0.0	0.0	0.0	0.0	0.0	0.0	0.0	0.0	0.0	10.4				
	4192	173.55	53.13	135.9	-29.64	1.0	320.4	1	267.0	80.1	0.0	0.0	0.0	0.0	0.0	0.0	0.0	0.0	0.0	0.0	267.0				
	4192	173.55	53.13	135.9	-29.64	1.0	320.4	1	267.0	80.1	0.0	0.0	0.0	0.0	0.0	0.0	0.0	0.0	0.0	0.0	267.0				
	4192	173.55	53.13	135.9	-29.64	1.0	320.4	1	267.0	80.1	0.0	0.0	0.0	0.0	0.0	0.0	0.0	0.0	0.0	0.0	267.0				
	4192	119.45000000000002	36.57	93.54	-20.4	1.0	220.52	1	183.77	55.13	0.0	0.0	0.0	0.0	0.0	0.0	0.0	0.0	0.0	0.0	183.77				
	4192	119.45000000000002	36.57	93.54	-20.4	1.0	220.52	1	183.77	55.13	0.0	0.0	0.0	0.0	0.0	0.0	0.0	0.0	0.0	0.0	183.77				
	4194	151.2	6.955	42.94	-29.03	1.0	241.92	1	151.2	151.2	0.0	0.0	0.0	0.0	0.0	0.0	0.0	0.0	0.0	0.0	201.6				
	4195	69.0	3.175	19.6	-13.25	1.0	110.4	1	69.0	69.0	0.0	0.0	0.0	0.0	0.0	0.0	0.0	0.0	0.0	0.0	92.0				
	5020	90.0	4.14	25.56	-17.28	1.0	144.0	1	90.0	90.0	0.0	0.0	0.0	0.0	0.0	0.0	0.0	0.0	0.0	0.0	120.0				
	5023	0.0	0.0	2.44	-0.53	1.0	5.76	0	4.8	1.44	0.0	0.0	0.0	0.0	0.0	0.0	0.0	0.0	0.0	0.0	4.8				
	5035	0.0	0.0	2.14	-0.4699999999999999	1.0	5.04	0	4.2	1.26	0.0	0.0	0.0	0.0	0.0	0.0	0.0	0.0	0.0	0.0	4.2				
	5036	0.0	0.0	3.26	-0.71	1.0	7.68	0	6.4	1.92	0.0	0.0	0.0	0.0	0.0	0.0	0.0	0.0	0.0	0.0	6.4				
	5037	200.50499999999997	61.385	157.01	-34.24	1.0	370.16	1	308.47	92.54	0.0	0.0	0.0	0.0	0.0	0.0	0.0	0.0	0.0	0.0	308.47				
	5038	200.50499999999997	61.385	157.01	-34.24	1.0	370.16	1	308.47	92.54	0.0	0.0	0.0	0.0	0.0	0.0	0.0	0.0	0.0	0.0	308.47				
	5039	200.50499999999997	61.385	157.01	-34.24	1.0	370.16	1	308.47	92.54	0.0	0.0	0.0	0.0	0.0	0.0	0.0	0.0	0.0	0.0	308.47				
	5040	200.50499999999997	61.385	157.01	-34.24	1.0	370.16	1	308.47	92.54	0.0	0.0	0.0	0.0	0.0	0.0	0.0	0.0	0.0	0.0	308.47				
	5041	200.50499999999997	61.385	157.01	-34.24	1.0	370.16	1	308.47	92.54	0.0	0.0	0.0	0.0	0.0	0.0	0.0	0.0	0.0	0.0	308.47				
	5042	200.50499999999997	61.385	157.01	-34.24	1.0	370.16	1	308.47	92.54	0.0	0.0	0.0	0.0	0.0	0.0	0.0	0.0	0.0	0.0	308.47				
	5051	55.055	16.855	43.11	-9.4	1.0	101.64	1	84.7	25.41	0.0	0.0	0.0	0.0	0.0	0.0	0.0	0.0	0.0	0.0	84.7				
	5057	0.0	0.0	161.53	-35.23	1.0	380.82	0	317.35	95.2	0.0	0.0	0.0	0.0	0.0	0.0	0.0	0.0	0.0	0.0	317.35				
	5058	206.27499999999998	63.14999999999999	161.53	-35.23	1.0	380.82	1	317.35	95.2	0.0	0.0	0.0	0.0	0.0	0.0	0.0	0.0	0.0	0.0	317.35				
	5065	6.890000000000001	2.11	5.4	-1.18	1.0	12.72	1	10.6	3.18	0.0	0.0	0.0	0.0	0.0	0.0	0.0	0.0	0.0	0.0	10.6				
	5066	0.0	0.0	0.9199999999999999	-0.2	1.0	2.16	0	1.8000000000000003	0.54	0.0	0.0	0.0	0.0	0.0	0.0	0.0	0.0	0.0	0.0	1.8				
	5067	284.875	87.215	223.08000000000004	-48.65	1.0	525.92	1	438.27	131.48	0.0	0.0	0.0	0.0	0.0	0.0	0.0	0.0	0.0	0.0	438.27				
	5068	284.875	87.215	223.08000000000004	-48.65	1.0	525.92	1	438.27	131.48	0.0	0.0	0.0	0.0	0.0	0.0	0.0	0.0	0.0	0.0	438.27				
	5069	284.875	87.215	223.08000000000004	-48.65	1.0	525.92	1	438.27	131.48	0.0	0.0	0.0	0.0	0.0	0.0	0.0	0.0	0.0	0.0	438.27				
	5089	0.0	0.0	47.57	-2.05	1.0	50.16	0	123.9	0.0	0.0	0.0	0.0	0.0	0.0	0.0	0.0	0.0	0.0	0.0	41.8				
...
];

%% branch data
%    f_bus    t_bus    r    x    b    rateA    rateB    rateC    ratio    angle    status    angmin    angmax
mpc.branch = [
	1001	1064	0.00524	0.0358	0.00609	221.0	221.0	221.0	0	0	1	-29.999999999999996	29.999999999999996								
	1001	1064	0.00524	0.0358	0.00609	221.0	221.0	221.0	0	0	1	-29.999999999999996	29.999999999999996								
	1001	1071	0.00435	0.02808	0.00536	221.0	221.0	221.0	0	0	1	-29.999999999999996	29.999999999999996								
	1001	1071	0.00435	0.02808	0.00536	221.0	221.0	221.0	0	0	1	-29.999999999999996	29.999999999999996								
	1002	1007	0.07776	0.46693	0.06336	98.0	98.0	98.0	0	0	1	-29.999999999999996	29.999999999999996								
	1010	1002	0.05552	0.1357	0.01777	98.0	98.0	98.0	0	0	1	-29.999999999999996	29.999999999999996								
	1004	1003	0.0045	0.11582	0.0	250.0	250.0	250.0	1.0	0.0	1	-29.999999999999996	29.999999999999996								
	1022	1003	0.00485	0.02012	0.00341	221.0	221.0	221.0	0	0	1	-29.999999999999996	29.999999999999996								
	1055	1003	0.01574	0.03782	0.00513	98.0	98.0	98.0	0	0	1	-29.999999999999996	29.999999999999996								
	1004	3133	0.0042	0.03	0.055	523.0	523.0	523.0	0	0	1	-29.999999999999996	29.999999999999996								
	1006	1005	0.00602	0.14707	0.0	42.0	42.0	42.0	1.0	0.0	1	-29.999999999999996	29.999999999999996								
	1025	1005	0.01842	0.0821	0.01204	149.0	149.0	149.0	0	0	1	-29.999999999999996	29.999999999999996								
	1005	1061	0.00599	0.02484	0.00422	221.0	221.0	221.0	0	0	1	-29.999999999999996	29.999999999999996								
	1067	1005	0.01711	0.04181	0.00548	98.0	98.0	98.0	0	0	1	-29.999999999999996	29.999999999999996								
	1007	1015	0.06224	0.37375	0.05072	98.0	98.0	98.0	0	0	1	-29.999999999999996	29.999999999999996								
	1031	1007	0.04803	0.27434	0.04123	98.0	98.0	98.0	0	0	1	-29.999999999999996	29.999999999999996								
	1009	1008	0.00455	0.09471	0.0	120.0	120.0	120.0	1.0	0.0	1	-29.999999999999996	29.999999999999996								
	1008	1032	0.04501	0.11002	0.01441	98.0	98.0	98.0	0	0	1	-29.999999999999996	29.999999999999996								
	1008	1069	0.0083	0.03628	0.00553	149.0	149.0	149.0	0	0	1	-29.999999999999996	29.999999999999996								
	1011	1010	0.00721	0.3246	0.0	46.0	46.0	46.0	1.0	0.0	1	-29.999999999999996	29.999999999999996								
	1010	1015	0.04703	0.28243	0.03833	98.0	98.0	98.0	0	0	1	-29.999999999999996	29.999999999999996								
	1010	1030	0.0616	0.3699	0.0502	98.0	98.0	98.0	0	0	1	-29.999999999999996	29.999999999999996								
	1012	1087	0.04934	0.20469	0.03473	149.0	149.0	149.0	0	0	1	-29.999999999999996	29.999999999999996								
	3051	1012	0.0571	0.24977	0.03804	149.0	149.0	149.0	0	0	1	-29.999999999999996	29.999999999999996								
	1013	1031	0.04509	0.27078	0.03675	98.0	98.0	98.0	0	0	1	-29.999999999999996	29.999999999999996								
	1047	1013	0.00947	0.06117	0.01167	221.0	221.0	221.0	0	0	1	-29.999999999999996	29.999999999999996								
	1086	1013	0.079	0.19311	0.02529	98.0	98.0	98.0	0	0	1	-29.999999999999996	29.999999999999996								
	1014	1047	0.03566	0.14794	0.0251	149.0	149.0	149.0	0	0	1	-29.999999999999996	29.999999999999996								
	1014	1083	0.04105	0.18293	0.02682	149.0	149.0	149.0	0	0	1	-29.999999999999996	29.999999999999996								
	1016	1034	0.01828	0.10976	0.01489	98.0	98.0	98.0	0	0	1	-29.999999999999996	29.999999999999996								
	1068	1016	0.02773	0.15837	0.0238	98.0	98.0	98.0	0	0	1	-29.999999999999996	29.999999999999996								
	1018	1017	0.03227	0.07887	0.01033	98.0	98.0	98.0	0	0	1	-29.999999999999996	29.999999999999996								
	1017	1029	0.03244	0.14188	0.02161	149.0	149.0	149.0	0	0	1	-29.999999999999996	29.999999999999996								
	1037	1017	0.00752	0.03352	0.00491	221.0	221.0	221.0	0	0	1	-29.999999999999996	29.999999999999996								
	1047	1017	0.036	0.156	0.024	150.0	150.0	150.0	0	0	1	-29.999999999999996	29.999999999999996								
	1024	1018	0.01094	0.06572	0.00892	98.0	98.0	98.0	0	0	1	-29.999999999999996	29.999999999999996								
	1019	1040	0.04978	0.20651	0.03504	149.0	149.0	149.0	0	0	1	-29.999999999999996	29.999999999999996								
	1019	1045	0.01522	0.0372	0.00487	221.0	221.0	221.0	0	0	1	-29.999999999999996	29.999999999999996								
	1019	1071	0.0044	0.028	0.0054	225.0	225.0	225.0	0	0	1	-29.999999999999996	29.999999999999996								
	1019	1071	0.0044	0.028	0.0054	225.0	225.0	225.0	0	0	1	-29.999999999999996	29.999999999999996								
	1019	1084	0.03	0.16	0.025	220.00000000000003	220.00000000000003	220.00000000000003	0	0	1	-29.999999999999996	29.999999999999996								
	1021	1020	0.00327	0.07812	0.0	250.0	250.0	250.0	1.0	0.0	1	-29.999999999999996	29.999999999999996								
	1025	1020	0.00828	0.03434	0.00583	149.0	149.0	149.0	0	0	1	-29.999999999999996	29.999999999999996								
	1084	1020	0.01056	0.06337	0.0086	221.0	221.0	221.0	0	0	1	-29.999999999999996	29.999999999999996								
	1020	3059	0.0189	0.06	0.006	300.0	300.0	300.0	0	0	1	-29.999999999999996	29.999999999999996								
	1020	3130	0.00996	0.06938	0.01134	221.0	221.0	221.0	0	0	1	-29.999999999999996	29.999999999999996								
	1023	1022	0.00535	0.11733	0.0	250.0	250.0	250.0	1.0	0.0	1	-29.999999999999996	29.999999999999996								
	1022	1028	0.01433	0.09253	0.01765	221.0	221.0	221.0	0	0	1	-29.999999999999996	29.999999999999996								
	1022	1028	0.01433	0.09253	0.01765	221.0	221.0	221.0	0	0	1	-29.999999999999996	29.999999999999996								
	1024	1090	0.01414	0.06303	0.00924	149.0	149.0	149.0	0	0	1	-29.999999999999996	29.999999999999996								
	1026	1025	0.0042	0.18046	0.0	200.0	200.0	200.0	1.0	0.0	1	-29.999999999999996	29.999999999999996								
	1027	1045	0.02505	0.10957	0.01669	221.0	221.0	221.0	0	0	1	-29.999999999999996	29.999999999999996								
	1056	1027	0.03121	0.0763	0.00999	250.0	250.0	250.0	0	0	1	-29.999999999999996	29.999999999999996								
	1028	3109	0.00428	0.01875	0.00286	250.0	250.0	250.0	0	0	1	-29.999999999999996	29.999999999999996								
	1029	1056	0.02054	0.11733	0.01763	221.0	221.0	221.0	0	0	1	-29.999999999999996	29.999999999999996								
	1030	1038	0.07404	0.42285	0.06354	98.0	98.0	98.0	0	0	1	-29.999999999999996	29.999999999999996								
	1083	1030	0.06537	0.37334	0.0561	98.0	98.0	98.0	0	0	1	-29.999999999999996	29.999999999999996								
	1033	1032	0.00283	0.06758	0.0	170.0	170.0	170.0	1.0	0.0	1	-29.999999999999996	29.999999999999996								
	1032	1036	0.01956	0.11746	0.01594	98.0	98.0	98.0	0	0	1	-29.999999999999996	29.999999999999996								
	1038	1032	0.045	0.11	0.015	155.0	155.0	155.0	0	0	1	-29.999999999999996	29.999999999999996								
	1033	1081	0.003	0.031	0.059	548.0	548.0	548.0	0	0	1	-29.999999999999996	29.999999999999996								
	1033	3050	0.0139	0.136	0.262	647.0	647.0	647.0	0	0	1	-29.999999999999996	29.999999999999996								
	1035	1034	0.00438	0.08496	0.0	130.0	130.0	130.0	1.0	0.0	1	-29.999999999999996	29.999999999999996								
	1067	1034	0.00795	0.04771	0.00647	98.0	98.0	98.0	0	0	1	-29.999999999999996	29.999999999999996								
	1088	1036	0.02065	0.11793	0.01772	98.0	98.0	98.0	0	0	1	-29.999999999999996	29.999999999999996								
	1037	1071	0.00669	0.04319	0.00824	300.0	300.0	300.0	0	0	1	-29.999999999999996	29.999999999999996								
	1039	1038	0.00201	0.08591	0.0	200.0	200.0	200.0	1.0	0.0	1	-29.999999999999996	29.999999999999996								
	1082	1038	0.01115	0.04969	0.00729	149.0	149.0	149.0	0	0	1	-29.999999999999996	29.999999999999996								
	1083	1038	0.01	0.05	0.007	221.0	221.0	221.0	0	0	1	-29.999999999999996	29.999999999999996								
	1040	1090	0.02991	0.13329	0.01955	149.0	149.0	149.0	0	0	1	-29.999999999999996	29.999999999999996								
	1042	1041	0.00419	0.11123	0.0	145.0	145.0	145.0	1.0	0.0	1	-29.999999999999996	29.999999999999996								
	1043	1041	0.003	0.12844	0.0	95.0	95.0	95.0	1.0	0.0	1	-29.999999999999996	29.999999999999996								
	1065	1041	0.00386	0.02203	0.00331	98.0	98.0	98.0	0	0	1	-29.999999999999996	29.999999999999996								
	1041	1067	0.00393	0.01722	0.00262	149.0	149.0	149.0	0	0	1	-29.999999999999996	29.999999999999996								
	1044	3019	0.03857	0.17192	0.02521	149.0	149.0	149.0	0	0	1	-29.999999999999996	29.999999999999996								
	3130	1044	0.02731	0.19029	0.03111	221.0	221.0	221.0	0	0	1	-29.999999999999996	29.999999999999996								
	1045	1064	0.00545	0.03794	0.0062	221.0	221.0	221.0	0	0	1	-29.999999999999996	29.999999999999996								
	1087	1046	0.03262	0.14269	0.02173	149.0	149.0	149.0	0	0	1	-29.999999999999996	29.999999999999996								
	1046	3009	0.05654	0.23454	0.0398	149.0	149.0	149.0	0	0	1	-29.999999999999996	29.999999999999996								
	1048	1047	0.00335	0.06576	0.0	390.0	390.0	390.0	1.0	0.0	1	-29.999999999999996	29.999999999999996								
	1049	1047	0.00276	0.11783	0.0	390.0	390.0	390.0	1.0	0.0	1	-29.999999999999996	29.999999999999996								
	1050	1047	0.00313	0.09941	0.0	124.0	124.0	124.0	1.0	0.0	1	-29.999999999999996	29.999999999999996								
	1051	1047	0.0056	0.1283	0.0	117.0	117.0	117.0	1.0	0.0	1	-29.999999999999996	29.999999999999996								
	1052	1047	0.00368	0.0826	0.0	110.00000000000001	110.00000000000001	110.00000000000001	1.0	0.0	1	-29.999999999999996	29.999999999999996								
	1053	1047	0.0023	0.08808	0.0	250.0	250.0	250.0	1.0	0.0	1	-29.999999999999996	29.999999999999996								
	1047	1085	0.00947	0.06117	0.01167	221.0	221.0	221.0	0	0	1	-29.999999999999996	29.999999999999996								
	1053	1081	0.003	0.03	0.06	548.0	548.0	548.0	0	0	1	-29.999999999999996	29.999999999999996								
	1054	1056	0.02202	0.09633	0.01467	149.0	149.0	149.0	0	0	1	-29.999999999999996	29.999999999999996								
	1089	1054	0.08737	0.21357	0.02796	98.0	98.0	98.0	0	0	1	-29.999999999999996	29.999999999999996								
	1055	1089	0.04982	0.12179	0.01595	98.0	98.0	98.0	0	0	1	-29.999999999999996	29.999999999999996								
	1057	1056	0.00315	0.1312	0.0	160.0	160.0	160.0	1.0	0.0	1	-29.999999999999996	29.999999999999996								
	1056	1061	0.02267	0.12946	0.01945	150.0	150.0	150.0	0	0	1	-29.999999999999996	29.999999999999996								
	1056	1065	0.02269	0.12962	0.01948	250.0	250.0	250.0	0	0	1	-29.999999999999996	29.999999999999996								
	1059	1058	0.02655	0.46187	0.0	33.0	33.0	33.0	1.0	0.0	1	-29.999999999999996	29.999999999999996								
	1060	1058	0.00894	0.38854	0.0	27.0	27.0	27.0	1.0	0.0	1	-29.999999999999996	29.999999999999996								
	1069	1058	0.0074	0.05155	0.00843	221.0	221.0	221.0	0	0	1	-29.999999999999996	29.999999999999996								
	1069	1058	0.0074	0.05155	0.00843	221.0	221.0	221.0	0	0	1	-29.999999999999996	29.999999999999996								
	1058	1087	0.01573	0.10956	0.01791	221.0	221.0	221.0	0	0	1	-29.999999999999996	29.999999999999996								
	1058	1087	0.01573	0.10956	0.01791	221.0	221.0	221.0	0	0	1	-29.999999999999996	29.999999999999996								
	1062	1061	0.0163	0.31787	0.0	28.999999999999996	28.999999999999996	28.999999999999996	1.0	0.0	1	-29.999999999999996	29.999999999999996								
	1063	1061	0.00567	0.10409	0.0	260.0	260.0	260.0	1.0	0.0	1	-29.999999999999996	29.999999999999996								
	1061	3042	0.054	0.18	0.028	221.0	221.0	221.0	0	0	1	-29.999999999999996	29.999999999999996								
	1066	1065	0.00508	0.12315	0.0	200.0	200.0	200.0	1.0	0.0	1	-29.999999999999996	29.999999999999996								
	1088	1068	0.02962	0.16921	0.02543	98.0	98.0	98.0	0	0	1	-29.999999999999996	29.999999999999996								
	1070	1069	0.00297	0.07	0.0	220.00000000000003	220.00000000000003	220.00000000000003	1.0	0.0	1	-29.999999999999996	29.999999999999996								
	1082	1069	0.02137	0.0952	0.01396	149.0	149.0	149.0	0	0	1	-29.999999999999996	29.999999999999996								
	1072	1071	0.00529	0.08551	0.0	240.0	240.0	240.0	1.0	0.0	1	-29.999999999999996	29.999999999999996								
	1073	1071	0.00499	0.14254	0.0	240.0	240.0	240.0	1.0	0.0	1	-29.999999999999996	29.999999999999996								
	1074	1071	0.00575	0.12453	0.0	240.0	240.0	240.0	1.0	0.0	1	-29.999999999999996	29.999999999999996								
	1075	1071	0.00373	0.09967	0.0	240.0	240.0	240.0	1.0	0.0	1	-29.999999999999996	29.999999999999996								
	1076	1071	0.00141	0.04937	0.0	229.99999999999997	229.99999999999997	229.99999999999997	1.0	0.0	1	-29.999999999999996	29.999999999999996								
	1077	1071	0.00641	0.12047	0.0	229.99999999999997	229.99999999999997	229.99999999999997	1.0	0.0	1	-29.999999999999996	29.999999999999996								
	1078	1071	0.00533	0.19087	0.0	137.0	137.0	137.0	1.0	0.0	1	-29.999999999999996	29.999999999999996								
	1079	1071	0.00013	0.046	0.0	2000.0	2000.0	2000.0	1.0	0.0	1	-29.999999999999996	29.999999999999996								
	1080	1071	0.01206	0.20208	0.0	136.0	136.0	136.0	1.0	0.0	1	-29.999999999999996	29.999999999999996								
	1081	1071	0.00167	0.0665	0.0	350.0	350.0	350.0	1.0	0.0	1	-29.999999999999996	29.999999999999996								
	3048	1079	0.0013	0.015	1.02	2300.0	2300.0	2300.0	0	0	1	-29.999999999999996	29.999999999999996								
	3048	1079	0.0013	0.015	1.02	2300.0	2300.0	2300.0	0	0	1	-29.999999999999996	29.999999999999996								
	1081	3058	0.0091	0.089	0.171	548.0	548.0	548.0	0	0	1	-29.999999999999996	29.999999999999996								
	1084	3130	0.02049	0.09131	0.01339	221.0	221.0	221.0	0	0	1	-29.999999999999996	29.999999999999996								
	1085	1086	0.03392	0.14838	0.0226	149.0	149.0	149.0	0	0	1	-29.999999999999996	29.999999999999996								
	1090	1085	0.02018	0.13786	0.02346	221.0	221.0	221.0	0	0	1	-29.999999999999996	29.999999999999996								
	2029	1091	0.0389	0.17144	0.0798	187.0	187.0	187.0	0	0	1	-29.999999999999996	29.999999999999996								
	1091	2048	0.02193	0.09667	0.045	187.0	187.0	187.0	0	0	1	-29.999999999999996	29.999999999999996								
	2098	1091	0.00554	0.02443	0.01137	187.0	187.0	187.0	0	0	1	-29.999999999999996	29.999999999999996								
	2022	2001	0.00839	0.03697	0.01721	187.0	187.0	187.0	0	0	1	-29.999999999999996	29.999999999999996								
	2027	2001	0.00955	0.04062	0.02032	187.0	187.0	187.0	0	0	1	-29.999999999999996	29.999999999999996								
	2003	2002	0.0003	0.01986	0.0	981.0	981.0	981.0	1.0	0.0	1	-29.999999999999996	29.999999999999996								
	2004	2002	0.00022	0.01466	0.0	635.0	635.0	635.0	1.0	0.0	1	-29.999999999999996	29.999999999999996								
	2005	2002	0.00033	0.01714	0.0	645.0	645.0	645.0	1.0	0.0	1	-29.999999999999996	29.999999999999996								
	2006	2002	0.00036	0.02679	0.0	636.0	636.0	636.0	1.0	0.0	1	-29.999999999999996	29.999999999999996								
	2021	2002	0.00097	0.01175	0.78032	2295.0	2295.0	2295.0	0	0	1	-29.999999999999996	29.999999999999996								
	2002	2101	0.00031	0.0037	0.24573	2020.0	2020.0	2020.0	0	0	1	-29.999999999999996	29.999999999999996								
	2038	2003	0.00353	0.02067	0.01032	250.99999999999997	250.99999999999997	250.99999999999997	0	0	1	-29.999999999999996	29.999999999999996								
	2003	2047	0.0013	0.0099	0.0052	310.0	310.0	310.0	0	0	1	-29.999999999999996	29.999999999999996								
	2007	2114	0.00888	0.05207	0.026	250.99999999999997	250.99999999999997	250.99999999999997	0	0	1	-29.999999999999996	29.999999999999996								
	2007	2122	0.00861	0.03661	0.01831	187.0	187.0	187.0	0	0	1	-29.999999999999996	29.999999999999996								
	2014	2008	0.02253	0.09931	0.04623	187.0	187.0	187.0	0	0	1	-29.999999999999996	29.999999999999996								
	2008	2052	0.01877	0.08271	0.0385	187.0	187.0	187.0	0	0	1	-29.999999999999996	29.999999999999996								
	2009	2049	0.01224	0.07176	0.03583	250.99999999999997	250.99999999999997	250.99999999999997	0	0	1	-29.999999999999996	29.999999999999996								
	2009	2082	0.00735	0.03126	0.01563	187.0	187.0	187.0	0	0	1	-29.999999999999996	29.999999999999996								
	2109	2009	0.00725	0.03084	0.01542	250.0	250.0	250.0	0	0	1	-29.999999999999996	29.999999999999996								
	2061	2010	0.02439	0.10748	0.05003	187.0	187.0	187.0	0	0	1	-29.999999999999996	29.999999999999996								
	2010	2079	0.02061	0.09083	0.04228	187.0	187.0	187.0	0	0	1	-29.999999999999996	29.999999999999996								
	2010	2091	0.02461	0.10467	0.05235	187.0	187.0	187.0	0	0	1	-29.999999999999996	29.999999999999996								
	2012	2011	0.00044	0.03546	0.0	461.00000000000006	461.00000000000006	461.00000000000006	1.0	0.0	1	-29.999999999999996	29.999999999999996								
	2013	2011	0.00043	0.02897	0.0	412.0	412.0	412.0	1.0	0.0	1	-29.999999999999996	29.999999999999996								
	2127	2011	0.00108	0.01307	0.86827	2020.0	2020.0	2020.0	0	0	1	-29.999999999999996	29.999999999999996								
	2012	2041	0.01245	0.05297	0.02649	187.0	187.0	187.0	0	0	1	-29.999999999999996	29.999999999999996								
	2012	2052	0.02008	0.08851	0.0412	187.0	187.0	187.0	0	0	1	-29.999999999999996	29.999999999999996								
	2093	2012	0.01029	0.04536	0.02111	187.0	187.0	187.0	0	0	1	-29.999999999999996	29.999999999999996								
	2012	2123	0.00995	0.0423	0.02115	250.99999999999997	250.99999999999997	250.99999999999997	0	0	1	-29.999999999999996	29.999999999999996								
	2014	2029	0.01859	0.07908	0.03955	187.0	187.0	187.0	0	0	1	-29.999999999999996	29.999999999999996								
	2015	2037	0.00862	0.03799	0.01769	187.0	187.0	187.0	0	0	1	-29.999999999999996	29.999999999999996								
	5014	2015	0.00961	0.04237	0.01972	187.0	187.0	187.0	0	0	1	-29.999999999999996	29.999999999999996								
	2043	2016	0.00593	0.02614	0.01217	187.0	187.0	187.0	0	0	1	-29.999999999999996	29.999999999999996								
	2069	2016	0.0084	0.03705	0.01725	187.0	187.0	187.0	0	0	1	-29.999999999999996	29.999999999999996								
	2018	2017	0.00048	0.05045	0.0	271.0	271.0	271.0	1.0	0.0	1	-29.999999999999996	29.999999999999996								
	2019	2017	0.0002	0.01182	0.0	454.0	454.0	454.0	1.0	0.0	1	-29.999999999999996	29.999999999999996								
	2017	2096	0.00253	0.03068	2.03836	2020.0	2020.0	2020.0	0	0	1	-29.999999999999996	29.999999999999996								
	2017	2127	0.00089	0.01081	0.71846	2020.0	2020.0	2020.0	0	0	1	-29.999999999999996	29.999999999999996								
	2018	2093	0.01163	0.05125	0.02386	187.0	187.0	187.0	0	0	1	-29.999999999999996	29.999999999999996								
	2045	2020	0.00097	0.00548	0.00295	310.0	310.0	310.0	0	0	1	-29.999999999999996	29.999999999999996								
	2055	2020	0.00102	0.00744	0.00422	409.0	409.0	409.0	0	0	1	-29.999999999999996	29.999999999999996								
	2022	2021	0.00034	0.01888	0.0	867.0	867.0	867.0	1.0	0.0	1	-29.999999999999996	29.999999999999996								
	2023	2021	0.00054	0.03406	0.0	319.0	319.0	319.0	1.0	0.0	1	-29.999999999999996	29.999999999999996								
	2024	2021	0.00036	0.02425	0.0	391.0	391.0	391.0	1.0	0.0	1	-29.999999999999996	29.999999999999996								
	2113	2021	0.0001	0.00124	0.08207	2020.0	2020.0	2020.0	0	0	1	-29.999999999999996	29.999999999999996								
	2022	2040	0.02207	0.09391	0.04697	187.0	187.0	187.0	0	0	1	-29.999999999999996	29.999999999999996								
	2064	2022	0.00558	0.03156	0.01697	250.99999999999997	250.99999999999997	250.99999999999997	0	0	1	-29.999999999999996	29.999999999999996								
	2025	2055	0.0023	0.01016	0.00473	187.0	187.0	187.0	0	0	1	-29.999999999999996	29.999999999999996								
	2067	2025	0.00317	0.014	0.00651	187.0	187.0	187.0	0	0	1	-29.999999999999996	29.999999999999996								
	2058	2026	0.02475	0.10526	0.05264	187.0	187.0	187.0	0	0	1	-29.999999999999996	29.999999999999996								
	2128	2026	0.01207	0.05318	0.02475	187.0	187.0	187.0	0	0	1	-29.999999999999996	29.999999999999996								
	2027	2090	0.01692	0.07455	0.0347	187.0	187.0	187.0	0	0	1	-29.999999999999996	29.999999999999996								
	2028	2045	0.00363	0.02129	0.01063	250.99999999999997	250.99999999999997	250.99999999999997	0	0	1	-29.999999999999996	29.999999999999996								
	2028	2109	0.01026	0.0452	0.02104	250.0	250.0	250.0	0	0	1	-29.999999999999996	29.999999999999996								
	2112	2028	0.00369	0.02161	0.01079	310.0	310.0	310.0	0	0	1	-29.999999999999996	29.999999999999996								
	2030	2106	0.0118	0.05199	0.0242	187.0	187.0	187.0	0	0	1	-29.999999999999996	29.999999999999996								
	2122	2030	0.00737	0.0432	0.02157	250.99999999999997	250.99999999999997	250.99999999999997	0	0	1	-29.999999999999996	29.999999999999996								
	2031	2048	0.02398	0.10567	0.04919	187.0	187.0	187.0	0	0	1	-29.999999999999996	29.999999999999996								
	2031	2087	0.02177	0.09259	0.04631	187.0	187.0	187.0	0	0	1	-29.999999999999996	29.999999999999996								
	2032	2114	0.01097	0.04834	0.0225	187.0	187.0	187.0	0	0	1	-29.999999999999996	29.999999999999996								
	2122	2032	0.01414	0.06232	0.02901	187.0	187.0	187.0	0	0	1	-29.999999999999996	29.999999999999996								
	2129	2033	0.00522	0.02298	0.0107	187.0	187.0	187.0	0	0	1	-29.999999999999996	29.999999999999996								
	2033	5288	0.00925	0.03935	0.01968	187.0	187.0	187.0	0	0	1	-29.999999999999996	29.999999999999996								
	2034	2043	0.00439	0.01867	0.00934	187.0	187.0	187.0	0	0	1	-29.999999999999996	29.999999999999996								
	2046	2034	0.00468	0.01993	0.00997	187.0	187.0	187.0	0	0	1	-29.999999999999996	29.999999999999996								
	2035	2066	0.01411	0.08272	0.04131	250.99999999999997	250.99999999999997	250.99999999999997	0	0	1	-29.999999999999996	29.999999999999996								
	2035	2091	0.01863	0.10528	0.05663	250.99999999999997	250.99999999999997	250.99999999999997	0	0	1	-29.999999999999996	29.999999999999996								
	2036	2055	0.00216	0.0092	0.0046	300.0	300.0	300.0	0	0	1	-29.999999999999996	29.999999999999996								
	2036	2082	0.00236	0.01003	0.00502	250.0	250.0	250.0	0	0	1	-29.999999999999996	29.999999999999996								
	2037	2065	0.00415	0.02434	0.01216	250.99999999999997	250.99999999999997	250.99999999999997	0	0	1	-29.999999999999996	29.999999999999996								
	2110	2037	0.00307	0.01798	0.00898	250.99999999999997	250.99999999999997	250.99999999999997	0	0	1	-29.999999999999996	29.999999999999996								
	2081	2038	0.00639	0.03748	0.01871	250.99999999999997	250.99999999999997	250.99999999999997	0	0	1	-29.999999999999996	29.999999999999996								
	2039	2086	0.00845	0.03725	0.01734	187.0	187.0	187.0	0	0	1	-29.999999999999996	29.999999999999996								
	5285	2039	0.00569	0.03334	0.01665	250.99999999999997	250.99999999999997	250.99999999999997	0	0	1	-29.999999999999996	29.999999999999996								
	2039	5455	0.00371	0.02173	0.01085	250.99999999999997	250.99999999999997	250.99999999999997	0	0	1	-29.999999999999996	29.999999999999996								
	2040	2114	0.02335	0.09932	0.04967	187.0	187.0	187.0	0	0	1	-29.999999999999996	29.999999999999996								
	2121	2040	0.00894	0.03938	0.01833	187.0	187.0	187.0	0	0	1	-29.999999999999996	29.999999999999996								
...
];

%%-----  OPF Data  -----%%
%% cost data
%    1    startup    shutdown    n    x1    y1    ...    xn    yn
%    2    startup    shutdown    n    c(n-1)    ...    c0
mpc.gencost = [
	2	0.0	0.0	3	0.0	0.0	0.0
	2	0.0	0.0	3	0.0	0.0	0.0
	2	0.0	0.0	3	0.0	0.0	0.0
	2	0.0	0.0	3	0.0	0.0	0.0
	2	0.0	0.0	3	0.0	0.0	0.0
	2	0.0	0.0	3	0.0	0.0	0.0
	2	0.0	0.0	3	0.0	0.0	0.0
	2	0.0	0.0	3	0.0	0.0	0.0
	2	0.0	0.0	3	0.0	0.0	0.0
	2	0.0	0.0	3	0.0	0.0	0.0
	2	0.0	0.0	3	0.0	0.0	0.0
	2	0.0	0.0	3	0.0	0.0	0.0
	2	0.0	0.0	3	0.001	18.641	1087.8
	2	0.0	0.0	3	0.001	18.641	1087.8
	2	0.0	0.0	3	0.001	17.464	734.1
	2	0.0	0.0	3	0.001	17.464	734.1
	2	0.0	0.0	3	0.001	17.464	734.1
	2	0.0	0.0	3	0.001	17.91	868.2
	2	0.0	0.0	3	0.0	0.0	0.0
	2	0.0	0.0	3	0.001	17.046	608.4
	2	0.0	0.0	3	0.001	17.028	603.0
	2	0.0	0.0	3	0.0	0.0	0.0
	2	0.0	0.0	3	0.0	0.0	0.0
	2	0.0	0.0	3	0.0	0.0	0.0
	2	0.0	0.0	3	0.0	0.0	0.0
	2	0.0	0.0	3	0.001	17.977	888.2
	2	0.0	0.0	3	0.001	17.977	888.2
	2	0.0	0.0	3	0.001	17.977	888.2
	2	0.0	0.0	3	0.001	17.977	888.2
	2	0.0	0.0	3	0.001	17.977	888.2
	2	0.0	0.0	3	0.001	17.977	888.2
	2	0.0	0.0	3	0.001	17.495	743.25
	2	0.0	0.0	3	0.001	17.495	743.25
	2	0.0	0.0	3	0.001	17.495	743.25
	2	0.0	0.0	3	0.001	18.448	1029.75
	2	0.0	0.0	3	0.0	0.0	0.0
	2	0.0	0.0	3	0.0	0.0	0.0
	2	0.0	0.0	3	0.0	0.0	0.0
	2	0.0	0.0	3	0.0	0.0	0.0
	2	0.0	0.0	3	0.0	0.0	0.0
	2	0.0	0.0	3	0.002	27.494	1187.7
	2	0.0	0.0	3	0.002	27.494	1187.7
	2	0.0	0.0	3	0.002	27.494	1187.7
	2	0.0	0.0	3	0.0	0.0	0.0
	2	0.0	0.0	3	0.0	0.0	0.0
	2	0.0	0.0	3	0.001	16.989	724.99
	2	0.0	0.0	3	0.001	17.394	850.01
	2	0.0	0.0	3	0.0	0.0	0.0
	2	0.0	0.0	3	0.002	17.268	236.16
	2	0.0	0.0	3	0.002	17.268	1398.51
	2	0.0	0.0	3	0.0	0.0	0.0
	2	0.0	0.0	3	0.0	0.0	0.0
	2	0.0	0.0	3	0.0	0.0	0.0
	2	0.0	0.0	3	0.0	0.0	0.0
	2	0.0	0.0	3	0.0	0.0	0.0
	2	0.0	0.0	3	0.001	16.033	630.0
	2	0.0	0.0	3	0.001	16.033	630.0
	2	0.0	0.0	3	0.001	16.126	660.0
	2	0.0	0.0	3	0.0	0.0	0.0
	2	0.0	0.0	3	0.0	0.0	0.0
	2	0.0	0.0	3	0.0	0.0	0.0
	2	0.0	0.0	3	0.0	0.0	0.0
	2	0.0	0.0	3	0.0	0.0	0.0
	2	0.0	0.0	3	0.002	26.597000000000005	1001.59
	2	0.0	0.0	3	0.002	26.597000000000005	1001.59
	2	0.0	0.0	3	0.002	26.597000000000005	1001.59
	2	0.0	0.0	3	0.001	17.482	877.08
	2	0.0	0.0	3	0.001	17.482	877.08
	2	0.0	0.0	3	0.001	17.482	877.08
	2	0.0	0.0	3	0.001	17.482	877.08
	2	0.0	0.0	3	0.001	17.482	877.08
	2	0.0	0.0	3	0.001	17.482	877.08
	2	0.0	0.0	3	0.0	0.0	0.0
	2	0.0	0.0	3	0.0	0.0	0.0
	2	0.0	0.0	3	0.0	0.0	0.0
	2	0.0	0.0	3	0.0	0.0	0.0
	2	0.0	0.0	3	0.0	0.0	0.0
	2	0.0	0.0	3	0.0	0.0	0.0
	2	0.0	0.0	3	0.0	0.0	0.0
	2	0.0	0.0	3	0.0	0.0	0.0
	2	0.0	0.0	3	0.002	19.197	601.95
	2	0.0	0.0	3	0.002	19.693	734.1
	2	0.0	0.0	3	0.002	21.704	1365.86
	2	0.0	0.0	3	0.0	0.0	0.0
	2	0.0	0.0	3	0.0	0.0	0.0
	2	0.0	0.0	3	0.0	0.0	0.0
	2	0.0	0.0	3	0.0	0.0	0.0
	2	0.0	0.0	3	0.0	0.0	0.0
	2	0.0	0.0	3	0.0	0.0	0.0
	2	0.0	0.0	3	0.0	0.0	0.0
	2	0.0	0.0	3	0.0	0.0	0.0
	2	0.0	0.0	3	0.0	0.0	0.0
	2	0.0	0.0	3	0.0	0.0	0.0
	2	0.0	0.0	3	0.0	0.0	0.0
	2	0.0	0.0	3	0.0	0.0	0.0
	2	0.0	0.0	3	0.0	0.0	0.0
	2	0.0	0.0	3	0.0	0.0	0.0
	2	0.0	0.0	3	0.0	0.0	0.0
	2	0.0	0.0	3	0.0	0.0	0.0
	2	0.0	0.0	3	0.0	0.0	0.0
	2	0.0	0.0	3	0.0	0.0	0.0
	2	0.0	0.0	3	0.0	0.0	0.0
	2	0.0	0.0	3	0.0	0.0	0.0
	2	0.0	0.0	3	0.0	0.0	0.0
	2	0.0	0.0	3	0.0	0.0	0.0
	2	0.0	0.0	3	0.0	0.0	0.0
	2	0.0	0.0	3	0.0	0.0	0.0
	2	0.0	0.0	3	0.0	0.0	0.0
	2	0.0	0.0	3	0.0	0.0	0.0
	2	0.0	0.0	3	0.0	0.0	0.0
	2	0.0	0.0	3	0.0	0.0	0.0
	2	0.0	0.0	3	0.0	0.0	0.0
	2	0.0	0.0	3	0.0	0.0	0.0
	2	0.0	0.0	3	0.0	0.0	0.0
	2	0.0	0.0	3	0.002	19.478	676.95
	2	0.0	0.0	3	0.002	19.478	676.95
	2	0.0	0.0	3	0.002	19.478	676.95
	2	0.0	0.0	3	0.0	0.0	0.0
	2	0.0	0.0	3	0.0	0.0	0.0
	2	0.0	0.0	3	0.0	0.0	0.0
	2	0.0	0.0	3	0.002	17.172	1243.08
	2	0.0	0.0	3	0.002	17.172	1349.57
	2	0.0	0.0	3	0.0	0.0	0.0
	2	0.0	0.0	3	0.0	0.0	0.0
	2	0.0	0.0	3	0.0	0.0	0.0
...